1JCQ_739_1
foFlexX   03232113463D 1   1.00000     0.00000     0
FlexX 4.5.0 fol007
 74 74  0  0  0  0            999 V2000
   22.2395  135.2735   -4.3606 C   0  0  0  0  0  0  0  0  0  0  0  0
   21.6342  134.0828   -3.6138 C   0  0  0  0  0  0  0  0  0  0  0  0
   21.3262  134.4036   -2.1272 C   0  0  2  0  0  0  0  0  0  0  0  0
   22.1418  135.6109   -1.6262 C   0  0  0  0  0  0  0  0  0  0  0  0
   21.4375  133.1347   -1.1971 C   0  0  2  0  0  0  0  0  0  0  0  0
   20.1019  132.3546   -1.1886 C   0  0  0  0  0  0  0  0  0  0  0  0
   19.7033  132.0735   -2.5163 O   0  0  0  0  0  0  0  0  0  0  0  0
   18.4418  132.6562   -2.7972 C   0  0  2  0  0  0  0  0  0  0  0  0
   17.3987  132.0821   -1.8296 C   0  0  0  0  0  0  0  0  0  0  0  0
   16.0344  132.0508   -2.4686 C   0  0  0  0  0  0  0  0  0  0  0  0
   15.3761  130.8348   -2.6166 C   0  0  0  0  0  0  0  0  0  0  0  0
   14.1173  130.8129   -3.2076 C   0  0  0  0  0  0  0  0  0  0  0  0
   13.5239  131.9917   -3.6448 C   0  0  0  0  0  0  0  0  0  0  0  0
   14.1901  133.2037   -3.4929 C   0  0  0  0  0  0  0  0  0  0  0  0
   15.4493  133.2358   -2.9031 C   0  0  0  0  0  0  0  0  0  0  0  0
   18.0428  132.3339   -4.2130 C   0  0  0  0  0  0  0  0  0  0  0  0
   17.9128  131.1283   -4.5610 O   0  0  0  0  0  0  0  0  0  0  0  0
   17.7797  133.3920   -5.1474 N   0  0  0  0  0  0  0  0  0  0  0  0
   17.3543  133.1463   -6.5295 C   0  0  2  0  0  0  0  0  0  0  0  0
   17.1680  134.4766   -7.2804 C   0  0  0  0  0  0  0  0  0  0  0  0
   18.1066  135.5658   -6.7480 C   0  0  0  0  0  0  0  0  0  0  0  0
   18.5444  136.7305   -8.0298 S   0  0  0  0  0  0  0  0  0  0  0  0
   17.3800  138.0763   -8.0753 C   0  0  0  0  0  0  0  0  0  0  0  0
   19.9239  137.2710   -7.7773 O   0  0  0  0  0  0  0  0  0  0  0  0
   18.5272  136.0260   -9.3569 O   0  0  0  0  0  0  0  0  0  0  0  0
   16.0724  132.3633   -6.5286 C   0  0  0  0  0  0  0  0  0  0  0  0
   15.0892  132.7465   -5.8402 O   0  0  0  0  0  0  0  0  0  0  0  0
   15.9616  131.2123   -7.2988 O   0  5  0  0  0  0  0  0  0  0  0  0
   21.8486  133.4257    0.2019 N   0  3  0  0  0  0  0  0  0  0  0  0
   21.3055  132.4713    1.1891 C   0  0  0  0  0  0  0  0  0  0  0  0
   21.0861  133.1267    2.5797 C   0  0  2  0  0  0  0  0  0  0  0  0
   22.3525  133.6434    3.1194 N   0  3  0  0  0  0  0  0  0  0  0  0
   20.4689  132.1169    3.5709 C   0  0  0  0  0  0  0  0  0  0  0  0
   18.6867  132.1039    3.4750 S   0  0  0  0  0  0  0  0  0  0  0  0
   23.0965  135.5420   -3.9209 H   0  0  0  0  0  0  0  0  0  0  0  0
   22.4185  135.0154   -5.3100 H   0  0  0  0  0  0  0  0  0  0  0  0
   21.5989  136.0411   -4.3389 H   0  0  0  0  0  0  0  0  0  0  0  0
   22.2805  133.3205   -3.6495 H   0  0  0  0  0  0  0  0  0  0  0  0
   20.7829  133.8196   -4.0675 H   0  0  0  0  0  0  0  0  0  0  0  0
   20.3672  134.6856   -2.0975 H   0  0  0  0  0  0  0  0  0  0  0  0
   23.1090  135.3620   -1.5761 H   0  0  0  0  0  0  0  0  0  0  0  0
   22.0269  136.3765   -2.2591 H   0  0  0  0  0  0  0  0  0  0  0  0
   21.8188  135.8777   -0.7182 H   0  0  0  0  0  0  0  0  0  0  0  0
   22.1317  132.5339   -1.5935 H   0  0  0  0  0  0  0  0  0  0  0  0
   19.3982  132.9058   -0.7402 H   0  0  0  0  0  0  0  0  0  0  0  0
   20.2217  131.4965   -0.6891 H   0  0  0  0  0  0  0  0  0  0  0  0
   18.4969  133.6480   -2.6815 H   0  0  0  0  0  0  0  0  0  0  0  0
   17.3634  132.6531   -1.0094 H   0  0  0  0  0  0  0  0  0  0  0  0
   17.6635  131.1515   -1.5768 H   0  0  0  0  0  0  0  0  0  0  0  0
   15.8026  129.9867   -2.3020 H   0  0  0  0  0  0  0  0  0  0  0  0
   13.6358  129.9435   -3.3187 H   0  0  0  0  0  0  0  0  0  0  0  0
   12.6184  131.9685   -4.0684 H   0  0  0  0  0  0  0  0  0  0  0  0
   13.7636  134.0517   -3.8077 H   0  0  0  0  0  0  0  0  0  0  0  0
   15.9310  134.1051   -2.7921 H   0  0  0  0  0  0  0  0  0  0  0  0
   17.8915  134.3378   -4.8425 H   0  0  0  0  0  0  0  0  0  0  0  0
   18.0594  132.6101   -6.9935 H   0  0  0  0  0  0  0  0  0  0  0  0
   16.2222  134.7815   -7.1694 H   0  0  0  0  0  0  0  0  0  0  0  0
   17.3594  134.3302   -8.2510 H   0  0  0  0  0  0  0  0  0  0  0  0
   18.9399  135.1360   -6.4002 H   0  0  0  0  0  0  0  0  0  0  0  0
   17.6493  136.0553   -6.0056 H   0  0  0  0  0  0  0  0  0  0  0  0
   17.6299  138.7086   -8.8086 H   0  0  0  0  0  0  0  0  0  0  0  0
   16.4619  137.7172   -8.2433 H   0  0  0  0  0  0  0  0  0  0  0  0
   17.3940  138.5590   -7.1997 H   0  0  0  0  0  0  0  0  0  0  0  0
   21.5299  134.3429    0.4406 H   0  0  0  0  0  0  0  0  0  0  0  0
   22.8470  133.3966    0.2504 H   0  0  0  0  0  0  0  0  0  0  0  0
   21.9475  131.7112    1.2891 H   0  0  0  0  0  0  0  0  0  0  0  0
   20.4290  132.1254    0.8542 H   0  0  0  0  0  0  0  0  0  0  0  0
   20.4520  133.8925    2.4721 H   0  0  0  0  0  0  0  0  0  0  0  0
   22.5311  133.2242    4.0096 H   0  0  0  0  0  0  0  0  0  0  0  0
   23.0979  133.4214    2.4908 H   0  0  0  0  0  0  0  0  0  0  0  0
   22.2897  134.6358    3.2248 H   0  0  0  0  0  0  0  0  0  0  0  0
   20.7417  132.3666    4.5000 H   0  0  0  0  0  0  0  0  0  0  0  0
   20.8117  131.2021    3.3573 H   0  0  0  0  0  0  0  0  0  0  0  0
   18.3134  132.7738    4.1169 H   0  0  0  0  0  0  0  0  0  0  0  0
  1  2  1  0  0  0  0
  2  3  1  0  0  0  0
  3  4  1  0  0  0  0
  3  5  1  0  0  0  0
  5  6  1  0  0  0  0
  6  7  1  0  0  0  0
  7  8  1  0  0  0  0
  8  9  1  0  0  0  0
  9 10  1  0  0  0  0
 10 11  2  0  0  0  0
 11 12  1  0  0  0  0
 12 13  2  0  0  0  0
 13 14  1  0  0  0  0
 14 15  2  0  0  0  0
  8 16  1  0  0  0  0
 16 17  2  0  0  0  0
 16 18  1  0  0  0  0
 18 19  1  0  0  0  0
 19 20  1  0  0  0  0
 20 21  1  0  0  0  0
 21 22  1  0  0  0  0
 22 23  1  0  0  0  0
 22 24  2  0  0  0  0
 22 25  2  0  0  0  0
 19 26  1  0  0  0  0
 26 27  2  0  0  0  0
 26 28  1  0  0  0  0
  5 29  1  0  0  0  0
 29 30  1  0  0  0  0
 30 31  1  0  0  0  0
 31 32  1  0  0  0  0
 31 33  1  0  0  0  0
 33 34  1  0  0  0  0
 15 10  1  0  0  0  0
  1 35  1  0  0  0  0
  1 36  1  0  0  0  0
  1 37  1  0  0  0  0
  2 38  1  0  0  0  0
  2 39  1  0  0  0  0
  3 40  1  0  0  0  0
  4 41  1  0  0  0  0
  4 42  1  0  0  0  0
  4 43  1  0  0  0  0
  5 44  1  0  0  0  0
  6 45  1  0  0  0  0
  6 46  1  0  0  0  0
  8 47  1  0  0  0  0
  9 48  1  0  0  0  0
  9 49  1  0  0  0  0
 11 50  1  0  0  0  0
 12 51  1  0  0  0  0
 13 52  1  0  0  0  0
 14 53  1  0  0  0  0
 15 54  1  0  0  0  0
 18 55  1  0  0  0  0
 19 56  1  0  0  0  0
 20 57  1  0  0  0  0
 20 58  1  0  0  0  0
 21 59  1  0  0  0  0
 21 60  1  0  0  0  0
 23 61  1  0  0  0  0
 23 62  1  0  0  0  0
 23 63  1  0  0  0  0
 29 64  1  0  0  0  0
 29 65  1  0  0  0  0
 30 66  1  0  0  0  0
 30 67  1  0  0  0  0
 31 68  1  0  0  0  0
 32 69  1  0  0  0  0
 32 70  1  0  0  0  0
 32 71  1  0  0  0  0
 33 72  1  0  0  0  0
 33 73  1  0  0  0  0
 34 74  1  0  0  0  0
M  CHG  3  28  -1  29   1  32   1
M  END
>  <docking-score>
-37.50

$$$$
1JCQ_739_2
foFlexX   03232113463D 1   1.00000     0.00000     0
FlexX 4.5.0 fol007
 74 74  0  0  0  0            999 V2000
   22.4420  135.4017   -4.2099 C   0  0  0  0  0  0  0  0  0  0  0  0
   22.6588  134.7314   -2.8514 C   0  0  0  0  0  0  0  0  0  0  0  0
   21.3262  134.4036   -2.1272 C   0  0  2  0  0  0  0  0  0  0  0  0
   20.7466  135.6419   -1.4169 C   0  0  0  0  0  0  0  0  0  0  0  0
   21.4375  133.1347   -1.1971 C   0  0  2  0  0  0  0  0  0  0  0  0
   20.1019  132.3546   -1.1886 C   0  0  0  0  0  0  0  0  0  0  0  0
   19.7033  132.0735   -2.5163 O   0  0  0  0  0  0  0  0  0  0  0  0
   18.4418  132.6562   -2.7972 C   0  0  2  0  0  0  0  0  0  0  0  0
   17.3987  132.0821   -1.8296 C   0  0  0  0  0  0  0  0  0  0  0  0
   16.0344  132.0508   -2.4686 C   0  0  0  0  0  0  0  0  0  0  0  0
   15.3761  130.8348   -2.6166 C   0  0  0  0  0  0  0  0  0  0  0  0
   14.1173  130.8129   -3.2076 C   0  0  0  0  0  0  0  0  0  0  0  0
   13.5239  131.9917   -3.6448 C   0  0  0  0  0  0  0  0  0  0  0  0
   14.1901  133.2037   -3.4929 C   0  0  0  0  0  0  0  0  0  0  0  0
   15.4493  133.2358   -2.9031 C   0  0  0  0  0  0  0  0  0  0  0  0
   18.0428  132.3339   -4.2130 C   0  0  0  0  0  0  0  0  0  0  0  0
   17.9128  131.1283   -4.5610 O   0  0  0  0  0  0  0  0  0  0  0  0
   17.7797  133.3920   -5.1474 N   0  0  0  0  0  0  0  0  0  0  0  0
   17.3543  133.1463   -6.5295 C   0  0  2  0  0  0  0  0  0  0  0  0
   17.1680  134.4766   -7.2804 C   0  0  0  0  0  0  0  0  0  0  0  0
   18.1066  135.5658   -6.7480 C   0  0  0  0  0  0  0  0  0  0  0  0
   18.5444  136.7305   -8.0298 S   0  0  0  0  0  0  0  0  0  0  0  0
   17.3800  138.0763   -8.0753 C   0  0  0  0  0  0  0  0  0  0  0  0
   19.9239  137.2710   -7.7773 O   0  0  0  0  0  0  0  0  0  0  0  0
   18.5272  136.0260   -9.3569 O   0  0  0  0  0  0  0  0  0  0  0  0
   16.0724  132.3633   -6.5286 C   0  0  0  0  0  0  0  0  0  0  0  0
   15.0892  132.7465   -5.8402 O   0  0  0  0  0  0  0  0  0  0  0  0
   15.9616  131.2123   -7.2988 O   0  5  0  0  0  0  0  0  0  0  0  0
   21.8486  133.4257    0.2019 N   0  3  0  0  0  0  0  0  0  0  0  0
   21.3055  132.4713    1.1891 C   0  0  0  0  0  0  0  0  0  0  0  0
   21.0861  133.1267    2.5797 C   0  0  2  0  0  0  0  0  0  0  0  0
   22.3525  133.6434    3.1194 N   0  3  0  0  0  0  0  0  0  0  0  0
   20.4689  132.1169    3.5709 C   0  0  0  0  0  0  0  0  0  0  0  0
   18.6867  132.1039    3.4750 S   0  0  0  0  0  0  0  0  0  0  0  0
   21.9431  136.2590   -4.0828 H   0  0  0  0  0  0  0  0  0  0  0  0
   23.3279  135.5912   -4.6333 H   0  0  0  0  0  0  0  0  0  0  0  0
   21.9133  134.7929   -4.8014 H   0  0  0  0  0  0  0  0  0  0  0  0
   23.1946  135.3464   -2.2729 H   0  0  0  0  0  0  0  0  0  0  0  0
   23.1648  133.8803   -2.9915 H   0  0  0  0  0  0  0  0  0  0  0  0
   20.6723  134.1645   -2.8450 H   0  0  0  0  0  0  0  0  0  0  0  0
   21.3329  135.8885   -0.6453 H   0  0  0  0  0  0  0  0  0  0  0  0
   20.7040  136.4059   -2.0607 H   0  0  0  0  0  0  0  0  0  0  0  0
   19.8267  135.4349   -1.0838 H   0  0  0  0  0  0  0  0  0  0  0  0
   22.1317  132.5339   -1.5935 H   0  0  0  0  0  0  0  0  0  0  0  0
   19.3982  132.9058   -0.7402 H   0  0  0  0  0  0  0  0  0  0  0  0
   20.2217  131.4965   -0.6891 H   0  0  0  0  0  0  0  0  0  0  0  0
   18.4969  133.6480   -2.6815 H   0  0  0  0  0  0  0  0  0  0  0  0
   17.3634  132.6531   -1.0094 H   0  0  0  0  0  0  0  0  0  0  0  0
   17.6635  131.1515   -1.5768 H   0  0  0  0  0  0  0  0  0  0  0  0
   15.8026  129.9867   -2.3020 H   0  0  0  0  0  0  0  0  0  0  0  0
   13.6358  129.9435   -3.3187 H   0  0  0  0  0  0  0  0  0  0  0  0
   12.6184  131.9685   -4.0684 H   0  0  0  0  0  0  0  0  0  0  0  0
   13.7636  134.0517   -3.8077 H   0  0  0  0  0  0  0  0  0  0  0  0
   15.9310  134.1051   -2.7921 H   0  0  0  0  0  0  0  0  0  0  0  0
   17.8915  134.3378   -4.8425 H   0  0  0  0  0  0  0  0  0  0  0  0
   18.0594  132.6101   -6.9935 H   0  0  0  0  0  0  0  0  0  0  0  0
   16.2222  134.7815   -7.1694 H   0  0  0  0  0  0  0  0  0  0  0  0
   17.3594  134.3302   -8.2510 H   0  0  0  0  0  0  0  0  0  0  0  0
   18.9399  135.1360   -6.4002 H   0  0  0  0  0  0  0  0  0  0  0  0
   17.6493  136.0553   -6.0056 H   0  0  0  0  0  0  0  0  0  0  0  0
   17.6299  138.7086   -8.8086 H   0  0  0  0  0  0  0  0  0  0  0  0
   16.4619  137.7172   -8.2433 H   0  0  0  0  0  0  0  0  0  0  0  0
   17.3940  138.5590   -7.1997 H   0  0  0  0  0  0  0  0  0  0  0  0
   21.5299  134.3429    0.4406 H   0  0  0  0  0  0  0  0  0  0  0  0
   22.8470  133.3966    0.2504 H   0  0  0  0  0  0  0  0  0  0  0  0
   21.9475  131.7112    1.2891 H   0  0  0  0  0  0  0  0  0  0  0  0
   20.4290  132.1254    0.8542 H   0  0  0  0  0  0  0  0  0  0  0  0
   20.4520  133.8925    2.4721 H   0  0  0  0  0  0  0  0  0  0  0  0
   22.5311  133.2242    4.0096 H   0  0  0  0  0  0  0  0  0  0  0  0
   23.0979  133.4214    2.4908 H   0  0  0  0  0  0  0  0  0  0  0  0
   22.2897  134.6358    3.2248 H   0  0  0  0  0  0  0  0  0  0  0  0
   20.7417  132.3666    4.5000 H   0  0  0  0  0  0  0  0  0  0  0  0
   20.8117  131.2021    3.3573 H   0  0  0  0  0  0  0  0  0  0  0  0
   18.3134  132.7738    4.1169 H   0  0  0  0  0  0  0  0  0  0  0  0
  1  2  1  0  0  0  0
  2  3  1  0  0  0  0
  3  4  1  0  0  0  0
  3  5  1  0  0  0  0
  5  6  1  0  0  0  0
  6  7  1  0  0  0  0
  7  8  1  0  0  0  0
  8  9  1  0  0  0  0
  9 10  1  0  0  0  0
 10 11  2  0  0  0  0
 11 12  1  0  0  0  0
 12 13  2  0  0  0  0
 13 14  1  0  0  0  0
 14 15  2  0  0  0  0
  8 16  1  0  0  0  0
 16 17  2  0  0  0  0
 16 18  1  0  0  0  0
 18 19  1  0  0  0  0
 19 20  1  0  0  0  0
 20 21  1  0  0  0  0
 21 22  1  0  0  0  0
 22 23  1  0  0  0  0
 22 24  2  0  0  0  0
 22 25  2  0  0  0  0
 19 26  1  0  0  0  0
 26 27  2  0  0  0  0
 26 28  1  0  0  0  0
  5 29  1  0  0  0  0
 29 30  1  0  0  0  0
 30 31  1  0  0  0  0
 31 32  1  0  0  0  0
 31 33  1  0  0  0  0
 33 34  1  0  0  0  0
 15 10  1  0  0  0  0
  1 35  1  0  0  0  0
  1 36  1  0  0  0  0
  1 37  1  0  0  0  0
  2 38  1  0  0  0  0
  2 39  1  0  0  0  0
  3 40  1  0  0  0  0
  4 41  1  0  0  0  0
  4 42  1  0  0  0  0
  4 43  1  0  0  0  0
  5 44  1  0  0  0  0
  6 45  1  0  0  0  0
  6 46  1  0  0  0  0
  8 47  1  0  0  0  0
  9 48  1  0  0  0  0
  9 49  1  0  0  0  0
 11 50  1  0  0  0  0
 12 51  1  0  0  0  0
 13 52  1  0  0  0  0
 14 53  1  0  0  0  0
 15 54  1  0  0  0  0
 18 55  1  0  0  0  0
 19 56  1  0  0  0  0
 20 57  1  0  0  0  0
 20 58  1  0  0  0  0
 21 59  1  0  0  0  0
 21 60  1  0  0  0  0
 23 61  1  0  0  0  0
 23 62  1  0  0  0  0
 23 63  1  0  0  0  0
 29 64  1  0  0  0  0
 29 65  1  0  0  0  0
 30 66  1  0  0  0  0
 30 67  1  0  0  0  0
 31 68  1  0  0  0  0
 32 69  1  0  0  0  0
 32 70  1  0  0  0  0
 32 71  1  0  0  0  0
 33 72  1  0  0  0  0
 33 73  1  0  0  0  0
 34 74  1  0  0  0  0
M  CHG  3  28  -1  29   1  32   1
M  END
>  <docking-score>
-36.92

$$$$
1JCQ_739_3
foFlexX   03232113463D 1   1.00000     0.00000     0
FlexX 4.5.0 fol007
 74 74  0  0  0  0            999 V2000
   19.5510  135.7220   -3.4269 C   0  0  0  0  0  0  0  0  0  0  0  0
   19.9094  135.0361   -2.1068 C   0  0  0  0  0  0  0  0  0  0  0  0
   21.3262  134.4036   -2.1272 C   0  0  2  0  0  0  0  0  0  0  0  0
   21.8186  134.1603   -3.5666 C   0  0  0  0  0  0  0  0  0  0  0  0
   21.4375  133.1347   -1.1971 C   0  0  2  0  0  0  0  0  0  0  0  0
   20.1019  132.3546   -1.1886 C   0  0  0  0  0  0  0  0  0  0  0  0
   19.7033  132.0735   -2.5163 O   0  0  0  0  0  0  0  0  0  0  0  0
   18.4418  132.6562   -2.7972 C   0  0  2  0  0  0  0  0  0  0  0  0
   17.3987  132.0821   -1.8296 C   0  0  0  0  0  0  0  0  0  0  0  0
   16.0344  132.0508   -2.4686 C   0  0  0  0  0  0  0  0  0  0  0  0
   15.3761  130.8348   -2.6166 C   0  0  0  0  0  0  0  0  0  0  0  0
   14.1173  130.8129   -3.2076 C   0  0  0  0  0  0  0  0  0  0  0  0
   13.5239  131.9917   -3.6448 C   0  0  0  0  0  0  0  0  0  0  0  0
   14.1901  133.2037   -3.4929 C   0  0  0  0  0  0  0  0  0  0  0  0
   15.4493  133.2358   -2.9031 C   0  0  0  0  0  0  0  0  0  0  0  0
   18.0428  132.3339   -4.2130 C   0  0  0  0  0  0  0  0  0  0  0  0
   17.9128  131.1283   -4.5610 O   0  0  0  0  0  0  0  0  0  0  0  0
   17.7797  133.3920   -5.1474 N   0  0  0  0  0  0  0  0  0  0  0  0
   17.3543  133.1463   -6.5295 C   0  0  2  0  0  0  0  0  0  0  0  0
   17.1680  134.4766   -7.2804 C   0  0  0  0  0  0  0  0  0  0  0  0
   18.1066  135.5658   -6.7480 C   0  0  0  0  0  0  0  0  0  0  0  0
   18.5444  136.7305   -8.0298 S   0  0  0  0  0  0  0  0  0  0  0  0
   17.3800  138.0763   -8.0753 C   0  0  0  0  0  0  0  0  0  0  0  0
   19.9239  137.2710   -7.7773 O   0  0  0  0  0  0  0  0  0  0  0  0
   18.5272  136.0260   -9.3569 O   0  0  0  0  0  0  0  0  0  0  0  0
   16.0724  132.3633   -6.5286 C   0  0  0  0  0  0  0  0  0  0  0  0
   15.0892  132.7465   -5.8402 O   0  0  0  0  0  0  0  0  0  0  0  0
   15.9616  131.2123   -7.2988 O   0  5  0  0  0  0  0  0  0  0  0  0
   21.8486  133.4257    0.2019 N   0  3  0  0  0  0  0  0  0  0  0  0
   21.3055  132.4713    1.1891 C   0  0  0  0  0  0  0  0  0  0  0  0
   21.0861  133.1267    2.5797 C   0  0  2  0  0  0  0  0  0  0  0  0
   22.3525  133.6434    3.1194 N   0  3  0  0  0  0  0  0  0  0  0  0
   20.4689  132.1169    3.5709 C   0  0  0  0  0  0  0  0  0  0  0  0
   18.6867  132.1039    3.4750 S   0  0  0  0  0  0  0  0  0  0  0  0
   19.5769  135.0518   -4.1686 H   0  0  0  0  0  0  0  0  0  0  0  0
   18.6322  136.1115   -3.3615 H   0  0  0  0  0  0  0  0  0  0  0  0
   20.2096  136.4511   -3.6133 H   0  0  0  0  0  0  0  0  0  0  0  0
   19.2396  134.3153   -1.9284 H   0  0  0  0  0  0  0  0  0  0  0  0
   19.8723  135.7146   -1.3731 H   0  0  0  0  0  0  0  0  0  0  0  0
   21.9410  135.0885   -1.7361 H   0  0  0  0  0  0  0  0  0  0  0  0
   21.2743  133.4342   -3.9868 H   0  0  0  0  0  0  0  0  0  0  0  0
   21.7204  135.0010   -4.0991 H   0  0  0  0  0  0  0  0  0  0  0  0
   22.7805  133.8877   -3.5483 H   0  0  0  0  0  0  0  0  0  0  0  0
   22.1317  132.5339   -1.5935 H   0  0  0  0  0  0  0  0  0  0  0  0
   19.3982  132.9058   -0.7402 H   0  0  0  0  0  0  0  0  0  0  0  0
   20.2217  131.4965   -0.6891 H   0  0  0  0  0  0  0  0  0  0  0  0
   18.4969  133.6480   -2.6815 H   0  0  0  0  0  0  0  0  0  0  0  0
   17.3634  132.6531   -1.0094 H   0  0  0  0  0  0  0  0  0  0  0  0
   17.6635  131.1515   -1.5768 H   0  0  0  0  0  0  0  0  0  0  0  0
   15.8026  129.9867   -2.3020 H   0  0  0  0  0  0  0  0  0  0  0  0
   13.6358  129.9435   -3.3187 H   0  0  0  0  0  0  0  0  0  0  0  0
   12.6184  131.9685   -4.0684 H   0  0  0  0  0  0  0  0  0  0  0  0
   13.7636  134.0517   -3.8077 H   0  0  0  0  0  0  0  0  0  0  0  0
   15.9310  134.1051   -2.7921 H   0  0  0  0  0  0  0  0  0  0  0  0
   17.8915  134.3378   -4.8425 H   0  0  0  0  0  0  0  0  0  0  0  0
   18.0594  132.6101   -6.9935 H   0  0  0  0  0  0  0  0  0  0  0  0
   16.2222  134.7815   -7.1694 H   0  0  0  0  0  0  0  0  0  0  0  0
   17.3594  134.3302   -8.2510 H   0  0  0  0  0  0  0  0  0  0  0  0
   18.9399  135.1360   -6.4002 H   0  0  0  0  0  0  0  0  0  0  0  0
   17.6493  136.0553   -6.0056 H   0  0  0  0  0  0  0  0  0  0  0  0
   17.6299  138.7086   -8.8086 H   0  0  0  0  0  0  0  0  0  0  0  0
   16.4619  137.7172   -8.2433 H   0  0  0  0  0  0  0  0  0  0  0  0
   17.3940  138.5590   -7.1997 H   0  0  0  0  0  0  0  0  0  0  0  0
   21.5299  134.3429    0.4406 H   0  0  0  0  0  0  0  0  0  0  0  0
   22.8470  133.3966    0.2504 H   0  0  0  0  0  0  0  0  0  0  0  0
   21.9475  131.7112    1.2891 H   0  0  0  0  0  0  0  0  0  0  0  0
   20.4290  132.1254    0.8542 H   0  0  0  0  0  0  0  0  0  0  0  0
   20.4520  133.8925    2.4721 H   0  0  0  0  0  0  0  0  0  0  0  0
   22.5311  133.2242    4.0096 H   0  0  0  0  0  0  0  0  0  0  0  0
   23.0979  133.4214    2.4908 H   0  0  0  0  0  0  0  0  0  0  0  0
   22.2897  134.6358    3.2248 H   0  0  0  0  0  0  0  0  0  0  0  0
   20.7417  132.3666    4.5000 H   0  0  0  0  0  0  0  0  0  0  0  0
   20.8117  131.2021    3.3573 H   0  0  0  0  0  0  0  0  0  0  0  0
   18.3134  132.7738    4.1169 H   0  0  0  0  0  0  0  0  0  0  0  0
  1  2  1  0  0  0  0
  2  3  1  0  0  0  0
  3  4  1  0  0  0  0
  3  5  1  0  0  0  0
  5  6  1  0  0  0  0
  6  7  1  0  0  0  0
  7  8  1  0  0  0  0
  8  9  1  0  0  0  0
  9 10  1  0  0  0  0
 10 11  2  0  0  0  0
 11 12  1  0  0  0  0
 12 13  2  0  0  0  0
 13 14  1  0  0  0  0
 14 15  2  0  0  0  0
  8 16  1  0  0  0  0
 16 17  2  0  0  0  0
 16 18  1  0  0  0  0
 18 19  1  0  0  0  0
 19 20  1  0  0  0  0
 20 21  1  0  0  0  0
 21 22  1  0  0  0  0
 22 23  1  0  0  0  0
 22 24  2  0  0  0  0
 22 25  2  0  0  0  0
 19 26  1  0  0  0  0
 26 27  2  0  0  0  0
 26 28  1  0  0  0  0
  5 29  1  0  0  0  0
 29 30  1  0  0  0  0
 30 31  1  0  0  0  0
 31 32  1  0  0  0  0
 31 33  1  0  0  0  0
 33 34  1  0  0  0  0
 15 10  1  0  0  0  0
  1 35  1  0  0  0  0
  1 36  1  0  0  0  0
  1 37  1  0  0  0  0
  2 38  1  0  0  0  0
  2 39  1  0  0  0  0
  3 40  1  0  0  0  0
  4 41  1  0  0  0  0
  4 42  1  0  0  0  0
  4 43  1  0  0  0  0
  5 44  1  0  0  0  0
  6 45  1  0  0  0  0
  6 46  1  0  0  0  0
  8 47  1  0  0  0  0
  9 48  1  0  0  0  0
  9 49  1  0  0  0  0
 11 50  1  0  0  0  0
 12 51  1  0  0  0  0
 13 52  1  0  0  0  0
 14 53  1  0  0  0  0
 15 54  1  0  0  0  0
 18 55  1  0  0  0  0
 19 56  1  0  0  0  0
 20 57  1  0  0  0  0
 20 58  1  0  0  0  0
 21 59  1  0  0  0  0
 21 60  1  0  0  0  0
 23 61  1  0  0  0  0
 23 62  1  0  0  0  0
 23 63  1  0  0  0  0
 29 64  1  0  0  0  0
 29 65  1  0  0  0  0
 30 66  1  0  0  0  0
 30 67  1  0  0  0  0
 31 68  1  0  0  0  0
 32 69  1  0  0  0  0
 32 70  1  0  0  0  0
 32 71  1  0  0  0  0
 33 72  1  0  0  0  0
 33 73  1  0  0  0  0
 34 74  1  0  0  0  0
M  CHG  3  28  -1  29   1  32   1
M  END
>  <docking-score>
-35.38

$$$$
1SA4_JAN_1
foFlexX   03232113463D 1   1.00000     0.00000     0
FlexX 4.5.0 fol007
 57 61  0  0  0  0            999 V2000
   16.7549  131.3979   -3.5947 C   0  0  0  0  0  0  0  0  0  0  0  0
   15.5629  132.2241   -3.3529 N   0  0  0  0  0  0  0  0  0  0  0  0
   14.2717  131.8167   -3.5217 C   0  0  0  0  0  0  0  0  0  0  0  0
   13.4885  132.8249   -3.2066 N   0  0  0  0  0  0  0  0  0  0  0  0
   14.2634  133.8866   -2.8337 C   0  0  0  0  0  0  0  0  0  0  0  0
   15.5733  133.5159   -2.9238 C   0  0  0  0  0  0  0  0  0  0  0  0
   16.8057  134.3836   -2.5987 C   0  0  2  0  0  0  0  0  0  0  0  0
   17.8487  133.4364   -2.1366 N   0  3  0  0  0  0  0  0  0  0  0  0
   16.4645  135.4435   -1.5323 C   0  0  0  0  0  0  0  0  0  0  0  0
   15.4964  136.4032   -1.8116 C   0  0  0  0  0  0  0  0  0  0  0  0
   15.1762  137.3658   -0.8599 C   0  0  0  0  0  0  0  0  0  0  0  0
   15.8349  137.3535    0.3646 C   0  0  0  0  0  0  0  0  0  0  0  0
   15.4369  138.5786    1.5932 Cl  0  0  0  0  0  0  0  0  0  0  0  0
   16.8025  136.3950    0.6456 C   0  0  0  0  0  0  0  0  0  0  0  0
   17.1218  135.4328   -0.3068 C   0  0  0  0  0  0  0  0  0  0  0  0
   17.2980  135.1444   -3.8123 C   0  0  0  0  0  0  0  0  0  0  0  0
   16.3918  135.5490   -4.7829 C   0  0  0  0  0  0  0  0  0  0  0  0
   16.8918  136.2439   -5.8760 C   0  0  0  0  0  0  0  0  0  0  0  0
   18.2493  136.5247   -5.9955 C   0  0  0  0  0  0  0  0  0  0  0  0
   19.1263  136.1044   -5.0053 C   0  0  0  0  0  0  0  0  0  0  0  0
   18.6569  135.4063   -3.8986 C   0  0  0  0  0  0  0  0  0  0  0  0
   20.5448  136.3922   -5.1346 C   0  0  0  0  0  0  0  0  0  0  0  0
   21.4988  135.9662   -4.1289 C   0  0  0  0  0  0  0  0  0  0  0  0
   22.5320  135.1074   -4.4886 C   0  0  0  0  0  0  0  0  0  0  0  0
   23.4428  134.7034   -3.5176 C   0  0  0  0  0  0  0  0  0  0  0  0
   23.3304  135.1463   -2.2039 C   0  0  0  0  0  0  0  0  0  0  0  0
   22.2891  136.0048   -1.8670 C   0  0  0  0  0  0  0  0  0  0  0  0
   22.1271  136.5819   -0.1910 Cl  0  0  0  0  0  0  0  0  0  0  0  0
   21.3666  136.4211   -2.8212 C   0  0  0  0  0  0  0  0  0  0  0  0
   21.0390  137.0497   -6.1680 C   0  0  0  0  0  0  0  0  0  0  0  0
   20.1372  137.5004   -7.2105 C   0  0  0  0  0  0  0  0  0  0  0  0
   20.5937  138.1087   -8.1652 O   0  0  0  0  0  0  0  0  0  0  0  0
   18.7683  137.2243   -7.0925 N   0  0  0  0  0  0  0  0  0  0  0  0
   17.8970  137.7005   -8.1800 C   0  0  0  0  0  0  0  0  0  0  0  0
   17.5766  131.9317   -3.3952 H   0  0  0  0  0  0  0  0  0  0  0  0
   16.7283  130.5928   -3.0021 H   0  0  0  0  0  0  0  0  0  0  0  0
   16.7705  131.1071   -4.5514 H   0  0  0  0  0  0  0  0  0  0  0  0
   13.9742  130.9131   -3.8298 H   0  0  0  0  0  0  0  0  0  0  0  0
   13.9275  134.7829   -2.5441 H   0  0  0  0  0  0  0  0  0  0  0  0
   18.7528  133.8037   -2.3548 H   0  0  0  0  0  0  0  0  0  0  0  0
   17.7700  133.3103   -1.1477 H   0  0  0  0  0  0  0  0  0  0  0  0
   17.7267  132.5563   -2.5955 H   0  0  0  0  0  0  0  0  0  0  0  0
   15.0308  136.4008   -2.6966 H   0  0  0  0  0  0  0  0  0  0  0  0
   14.4811  138.0580   -1.0540 H   0  0  0  0  0  0  0  0  0  0  0  0
   17.2678  136.3975    1.5307 H   0  0  0  0  0  0  0  0  0  0  0  0
   17.8168  134.7406   -0.1122 H   0  0  0  0  0  0  0  0  0  0  0  0
   15.4160  135.3476   -4.6980 H   0  0  0  0  0  0  0  0  0  0  0  0
   16.2636  136.5487   -6.5918 H   0  0  0  0  0  0  0  0  0  0  0  0
   19.2840  135.1004   -3.1822 H   0  0  0  0  0  0  0  0  0  0  0  0
   22.6189  134.7851   -5.4313 H   0  0  0  0  0  0  0  0  0  0  0  0
   24.1887  134.0861   -3.7677 H   0  0  0  0  0  0  0  0  0  0  0  0
   23.9889  134.8516   -1.5114 H   0  0  0  0  0  0  0  0  0  0  0  0
   20.6201  137.0377   -2.5710 H   0  0  0  0  0  0  0  0  0  0  0  0
   22.0199  137.2338   -6.2306 H   0  0  0  0  0  0  0  0  0  0  0  0
   16.9505  137.4427   -7.9860 H   0  0  0  0  0  0  0  0  0  0  0  0
   17.9639  138.6958   -8.2492 H   0  0  0  0  0  0  0  0  0  0  0  0
   18.1850  137.2863   -9.0435 H   0  0  0  0  0  0  0  0  0  0  0  0
  1  2  1  0  0  0  0
  2  3  1  0  0  0  0
  3  4  2  0  0  0  0
  4  5  1  0  0  0  0
  5  6  2  0  0  0  0
  6  7  1  0  0  0  0
  7  8  1  0  0  0  0
  7  9  1  0  0  0  0
  9 10  2  0  0  0  0
 10 11  1  0  0  0  0
 11 12  2  0  0  0  0
 12 13  1  0  0  0  0
 12 14  1  0  0  0  0
 14 15  2  0  0  0  0
  7 16  1  0  0  0  0
 16 17  2  0  0  0  0
 17 18  1  0  0  0  0
 18 19  2  0  0  0  0
 19 20  1  0  0  0  0
 20 21  2  0  0  0  0
 20 22  1  0  0  0  0
 22 23  1  0  0  0  0
 23 24  2  0  0  0  0
 24 25  1  0  0  0  0
 25 26  2  0  0  0  0
 26 27  1  0  0  0  0
 27 28  1  0  0  0  0
 27 29  2  0  0  0  0
 22 30  2  0  0  0  0
 30 31  1  0  0  0  0
 31 32  2  0  0  0  0
 31 33  1  0  0  0  0
 33 34  1  0  0  0  0
  6  2  1  0  0  0  0
 15  9  1  0  0  0  0
 21 16  1  0  0  0  0
 29 23  1  0  0  0  0
 33 19  1  0  0  0  0
  1 35  1  0  0  0  0
  1 36  1  0  0  0  0
  1 37  1  0  0  0  0
  3 38  1  0  0  0  0
  5 39  1  0  0  0  0
  8 40  1  0  0  0  0
  8 41  1  0  0  0  0
  8 42  1  0  0  0  0
 10 43  1  0  0  0  0
 11 44  1  0  0  0  0
 14 45  1  0  0  0  0
 15 46  1  0  0  0  0
 17 47  1  0  0  0  0
 18 48  1  0  0  0  0
 21 49  1  0  0  0  0
 24 50  1  0  0  0  0
 25 51  1  0  0  0  0
 26 52  1  0  0  0  0
 29 53  1  0  0  0  0
 30 54  1  0  0  0  0
 34 55  1  0  0  0  0
 34 56  1  0  0  0  0
 34 57  1  0  0  0  0
M  CHG  1   8   1
M  END
>  <docking-score>
-16.04

$$$$
1SA4_JAN_2
foFlexX   03232113463D 1   1.00000     0.00000     0
FlexX 4.5.0 fol007
 57 61  0  0  0  0            999 V2000
   16.5699  138.0785   -2.6711 C   0  0  0  0  0  0  0  0  0  0  0  0
   15.6420  137.8671   -1.5503 N   0  0  0  0  0  0  0  0  0  0  0  0
   15.2484  138.8225   -0.6594 C   0  0  0  0  0  0  0  0  0  0  0  0
   14.4183  138.2602    0.1913 N   0  0  0  0  0  0  0  0  0  0  0  0
   14.2696  136.9433   -0.1412 C   0  0  0  0  0  0  0  0  0  0  0  0
   15.0387  136.6872   -1.2386 C   0  0  0  0  0  0  0  0  0  0  0  0
   15.1846  135.3394   -1.9731 C   0  0  2  0  0  0  0  0  0  0  0  0
   13.8898  134.6416   -1.7855 N   0  3  0  0  0  0  0  0  0  0  0  0
   16.3708  134.5326   -1.4084 C   0  0  0  0  0  0  0  0  0  0  0  0
   17.1511  135.0860   -0.3979 C   0  0  0  0  0  0  0  0  0  0  0  0
   18.2243  134.3707    0.1231 C   0  0  0  0  0  0  0  0  0  0  0  0
   18.5024  133.1043   -0.3792 C   0  0  0  0  0  0  0  0  0  0  0  0
   19.8723  132.1759    0.2767 Cl  0  0  0  0  0  0  0  0  0  0  0  0
   17.7235  132.5495   -1.3887 C   0  0  0  0  0  0  0  0  0  0  0  0
   16.6505  133.2656   -1.9089 C   0  0  0  0  0  0  0  0  0  0  0  0
   15.4627  135.5271   -3.4501 C   0  0  0  0  0  0  0  0  0  0  0  0
   14.4026  135.6303   -4.3404 C   0  0  0  0  0  0  0  0  0  0  0  0
   14.7089  135.8021   -5.6837 C   0  0  0  0  0  0  0  0  0  0  0  0
   16.0276  135.8684   -6.1223 C   0  0  0  0  0  0  0  0  0  0  0  0
   17.0622  135.7613   -5.2034 C   0  0  0  0  0  0  0  0  0  0  0  0
   16.7885  135.5884   -3.8515 C   0  0  0  0  0  0  0  0  0  0  0  0
   18.4392  135.8238   -5.6636 C   0  0  0  0  0  0  0  0  0  0  0  0
   19.5529  135.7089   -4.7400 C   0  0  0  0  0  0  0  0  0  0  0  0
   20.4660  134.6716   -4.8976 C   0  0  0  0  0  0  0  0  0  0  0  0
   21.5306  134.5687   -4.0079 C   0  0  0  0  0  0  0  0  0  0  0  0
   21.6883  135.4845   -2.9731 C   0  0  0  0  0  0  0  0  0  0  0  0
   20.7630  136.5138   -2.8348 C   0  0  0  0  0  0  0  0  0  0  0  0
   20.9464  137.6954   -1.5163 Cl  0  0  0  0  0  0  0  0  0  0  0  0
   19.6905  136.6357   -3.7122 C   0  0  0  0  0  0  0  0  0  0  0  0
   18.7498  135.9843   -6.9371 C   0  0  0  0  0  0  0  0  0  0  0  0
   17.6820  136.1022   -7.9114 C   0  0  0  0  0  0  0  0  0  0  0  0
   17.9690  136.2514   -9.0883 O   0  0  0  0  0  0  0  0  0  0  0  0
   16.3519  136.0409   -7.4741 N   0  0  0  0  0  0  0  0  0  0  0  0
   15.3064  136.1620   -8.5040 C   0  0  0  0  0  0  0  0  0  0  0  0
   16.6902  137.2206   -3.1707 H   0  0  0  0  0  0  0  0  0  0  0  0
   16.1967  138.7730   -3.2864 H   0  0  0  0  0  0  0  0  0  0  0  0
   17.4539  138.3858   -2.3187 H   0  0  0  0  0  0  0  0  0  0  0  0
   15.5393  139.7792   -0.6542 H   0  0  0  0  0  0  0  0  0  0  0  0
   13.6948  136.2801    0.3382 H   0  0  0  0  0  0  0  0  0  0  0  0
   14.0434  133.6537   -1.7653 H   0  0  0  0  0  0  0  0  0  0  0  0
   13.4764  134.9324   -0.9227 H   0  0  0  0  0  0  0  0  0  0  0  0
   13.2764  134.8682   -2.5421 H   0  0  0  0  0  0  0  0  0  0  0  0
   16.9404  135.9981   -0.0462 H   0  0  0  0  0  0  0  0  0  0  0  0
   18.7888  134.7623    0.8498 H   0  0  0  0  0  0  0  0  0  0  0  0
   17.9344  131.6373   -1.7401 H   0  0  0  0  0  0  0  0  0  0  0  0
   16.0861  132.8735   -2.6354 H   0  0  0  0  0  0  0  0  0  0  0  0
   13.4545  135.5826   -4.0262 H   0  0  0  0  0  0  0  0  0  0  0  0
   13.9667  135.8797   -6.3494 H   0  0  0  0  0  0  0  0  0  0  0  0
   17.5296  135.5101   -3.1847 H   0  0  0  0  0  0  0  0  0  0  0  0
   20.3588  134.0095   -5.6394 H   0  0  0  0  0  0  0  0  0  0  0  0
   22.1917  133.8259   -4.1139 H   0  0  0  0  0  0  0  0  0  0  0  0
   22.4561  135.4041   -2.3374 H   0  0  0  0  0  0  0  0  0  0  0  0
   19.0289  137.3779   -3.6056 H   0  0  0  0  0  0  0  0  0  0  0  0
   19.7066  136.0239   -7.2252 H   0  0  0  0  0  0  0  0  0  0  0  0
   14.4058  136.1006   -8.0736 H   0  0  0  0  0  0  0  0  0  0  0  0
   15.3951  137.0438   -8.9671 H   0  0  0  0  0  0  0  0  0  0  0  0
   15.4082  135.4236   -9.1707 H   0  0  0  0  0  0  0  0  0  0  0  0
  1  2  1  0  0  0  0
  2  3  1  0  0  0  0
  3  4  2  0  0  0  0
  4  5  1  0  0  0  0
  5  6  2  0  0  0  0
  6  7  1  0  0  0  0
  7  8  1  0  0  0  0
  7  9  1  0  0  0  0
  9 10  2  0  0  0  0
 10 11  1  0  0  0  0
 11 12  2  0  0  0  0
 12 13  1  0  0  0  0
 12 14  1  0  0  0  0
 14 15  2  0  0  0  0
  7 16  1  0  0  0  0
 16 17  2  0  0  0  0
 17 18  1  0  0  0  0
 18 19  2  0  0  0  0
 19 20  1  0  0  0  0
 20 21  2  0  0  0  0
 20 22  1  0  0  0  0
 22 23  1  0  0  0  0
 23 24  2  0  0  0  0
 24 25  1  0  0  0  0
 25 26  2  0  0  0  0
 26 27  1  0  0  0  0
 27 28  1  0  0  0  0
 27 29  2  0  0  0  0
 22 30  2  0  0  0  0
 30 31  1  0  0  0  0
 31 32  2  0  0  0  0
 31 33  1  0  0  0  0
 33 34  1  0  0  0  0
  6  2  1  0  0  0  0
 15  9  1  0  0  0  0
 21 16  1  0  0  0  0
 29 23  1  0  0  0  0
 33 19  1  0  0  0  0
  1 35  1  0  0  0  0
  1 36  1  0  0  0  0
  1 37  1  0  0  0  0
  3 38  1  0  0  0  0
  5 39  1  0  0  0  0
  8 40  1  0  0  0  0
  8 41  1  0  0  0  0
  8 42  1  0  0  0  0
 10 43  1  0  0  0  0
 11 44  1  0  0  0  0
 14 45  1  0  0  0  0
 15 46  1  0  0  0  0
 17 47  1  0  0  0  0
 18 48  1  0  0  0  0
 21 49  1  0  0  0  0
 24 50  1  0  0  0  0
 25 51  1  0  0  0  0
 26 52  1  0  0  0  0
 29 53  1  0  0  0  0
 30 54  1  0  0  0  0
 34 55  1  0  0  0  0
 34 56  1  0  0  0  0
 34 57  1  0  0  0  0
M  CHG  1   8   1
M  END
>  <docking-score>
-15.60

$$$$
1SA4_JAN_3
foFlexX   03232113463D 1   1.00000     0.00000     0
FlexX 4.5.0 fol007
 57 61  0  0  0  0            999 V2000
   17.9380  136.3192   -5.4697 C   0  0  0  0  0  0  0  0  0  0  0  0
   18.9121  137.1392   -6.2051 N   0  0  0  0  0  0  0  0  0  0  0  0
   18.9458  137.3016   -7.5593 C   0  0  0  0  0  0  0  0  0  0  0  0
   19.9500  138.1017   -7.8426 N   0  0  0  0  0  0  0  0  0  0  0  0
   20.5704  138.4610   -6.6796 C   0  0  0  0  0  0  0  0  0  0  0  0
   19.9220  137.8575   -5.6418 C   0  0  0  0  0  0  0  0  0  0  0  0
   20.2636  137.9746   -4.1429 C   0  0  2  0  0  0  0  0  0  0  0  0
   20.8568  139.3229   -3.9739 N   0  3  0  0  0  0  0  0  0  0  0  0
   21.2154  136.8685   -3.7170 C   0  0  0  0  0  0  0  0  0  0  0  0
   21.6126  135.9154   -4.6499 C   0  0  0  0  0  0  0  0  0  0  0  0
   22.4838  134.8974   -4.2765 C   0  0  0  0  0  0  0  0  0  0  0  0
   22.9466  134.8481   -2.9662 C   0  0  0  0  0  0  0  0  0  0  0  0
   24.0619  133.5515   -2.4723 Cl  0  0  0  0  0  0  0  0  0  0  0  0
   22.5509  135.7998   -2.0327 C   0  0  0  0  0  0  0  0  0  0  0  0
   21.6798  136.8174   -2.4072 C   0  0  0  0  0  0  0  0  0  0  0  0
   19.0020  137.8332   -3.2475 C   0  0  0  0  0  0  0  0  0  0  0  0
   18.2588  138.9606   -2.9259 C   0  0  0  0  0  0  0  0  0  0  0  0
   17.1397  138.7825   -2.1235 C   0  0  0  0  0  0  0  0  0  0  0  0
   16.7760  137.5227   -1.6586 C   0  0  0  0  0  0  0  0  0  0  0  0
   17.5431  136.4177   -2.0004 C   0  0  0  0  0  0  0  0  0  0  0  0
   18.6696  136.5630   -2.8020 C   0  0  0  0  0  0  0  0  0  0  0  0
   17.1661  135.1033   -1.5085 C   0  0  0  0  0  0  0  0  0  0  0  0
   17.9424  133.9209   -1.8338 C   0  0  0  0  0  0  0  0  0  0  0  0
   18.5166  133.1779   -0.8078 C   0  0  0  0  0  0  0  0  0  0  0  0
   19.2593  132.0459   -1.1284 C   0  0  0  0  0  0  0  0  0  0  0  0
   19.4308  131.6549   -2.4521 C   0  0  0  0  0  0  0  0  0  0  0  0
   18.8474  132.4133   -3.4618 C   0  0  0  0  0  0  0  0  0  0  0  0
   19.0562  131.9304   -5.1622 Cl  0  0  0  0  0  0  0  0  0  0  0  0
   18.1014  133.5491   -3.1645 C   0  0  0  0  0  0  0  0  0  0  0  0
   16.1069  134.9148   -0.7425 C   0  0  0  0  0  0  0  0  0  0  0  0
   15.2908  136.0571   -0.3785 C   0  0  0  0  0  0  0  0  0  0  0  0
   14.3114  135.8829    0.3288 O   0  0  0  0  0  0  0  0  0  0  0  0
   15.6502  137.3276   -0.8481 N   0  0  0  0  0  0  0  0  0  0  0  0
   14.7905  138.4537   -0.4462 C   0  0  0  0  0  0  0  0  0  0  0  0
   18.1315  136.3702   -4.4900 H   0  0  0  0  0  0  0  0  0  0  0  0
   17.0147  136.6609   -5.6453 H   0  0  0  0  0  0  0  0  0  0  0  0
   18.0052  135.3689   -5.7738 H   0  0  0  0  0  0  0  0  0  0  0  0
   18.3189  136.8863   -8.2185 H   0  0  0  0  0  0  0  0  0  0  0  0
   21.3647  139.0636   -6.6021 H   0  0  0  0  0  0  0  0  0  0  0  0
   20.6716  139.6551   -3.0490 H   0  0  0  0  0  0  0  0  0  0  0  0
   21.8451  139.2728   -4.1183 H   0  0  0  0  0  0  0  0  0  0  0  0
   20.4539  139.9503   -4.6403 H   0  0  0  0  0  0  0  0  0  0  0  0
   21.2717  135.9624   -5.5888 H   0  0  0  0  0  0  0  0  0  0  0  0
   22.7737  134.2096   -4.9421 H   0  0  0  0  0  0  0  0  0  0  0  0
   22.8921  135.7526   -1.0939 H   0  0  0  0  0  0  0  0  0  0  0  0
   21.3904  137.5051   -1.7414 H   0  0  0  0  0  0  0  0  0  0  0  0
   18.5194  139.8666   -3.2595 H   0  0  0  0  0  0  0  0  0  0  0  0
   16.5840  139.5758   -1.8748 H   0  0  0  0  0  0  0  0  0  0  0  0
   19.2266  135.7707   -3.0511 H   0  0  0  0  0  0  0  0  0  0  0  0
   18.3973  133.4531    0.1461 H   0  0  0  0  0  0  0  0  0  0  0  0
   19.6756  131.5059   -0.3969 H   0  0  0  0  0  0  0  0  0  0  0  0
   19.9661  130.8401   -2.6748 H   0  0  0  0  0  0  0  0  0  0  0  0
   17.6858  134.0896   -3.8961 H   0  0  0  0  0  0  0  0  0  0  0  0
   15.8712  133.9986   -0.4186 H   0  0  0  0  0  0  0  0  0  0  0  0
   15.1477  139.3019   -0.8372 H   0  0  0  0  0  0  0  0  0  0  0  0
   13.8606  138.2986   -0.7796 H   0  0  0  0  0  0  0  0  0  0  0  0
   14.7794  138.5251    0.5512 H   0  0  0  0  0  0  0  0  0  0  0  0
  1  2  1  0  0  0  0
  2  3  1  0  0  0  0
  3  4  2  0  0  0  0
  4  5  1  0  0  0  0
  5  6  2  0  0  0  0
  6  7  1  0  0  0  0
  7  8  1  0  0  0  0
  7  9  1  0  0  0  0
  9 10  2  0  0  0  0
 10 11  1  0  0  0  0
 11 12  2  0  0  0  0
 12 13  1  0  0  0  0
 12 14  1  0  0  0  0
 14 15  2  0  0  0  0
  7 16  1  0  0  0  0
 16 17  2  0  0  0  0
 17 18  1  0  0  0  0
 18 19  2  0  0  0  0
 19 20  1  0  0  0  0
 20 21  2  0  0  0  0
 20 22  1  0  0  0  0
 22 23  1  0  0  0  0
 23 24  2  0  0  0  0
 24 25  1  0  0  0  0
 25 26  2  0  0  0  0
 26 27  1  0  0  0  0
 27 28  1  0  0  0  0
 27 29  2  0  0  0  0
 22 30  2  0  0  0  0
 30 31  1  0  0  0  0
 31 32  2  0  0  0  0
 31 33  1  0  0  0  0
 33 34  1  0  0  0  0
  6  2  1  0  0  0  0
 15  9  1  0  0  0  0
 21 16  1  0  0  0  0
 29 23  1  0  0  0  0
 33 19  1  0  0  0  0
  1 35  1  0  0  0  0
  1 36  1  0  0  0  0
  1 37  1  0  0  0  0
  3 38  1  0  0  0  0
  5 39  1  0  0  0  0
  8 40  1  0  0  0  0
  8 41  1  0  0  0  0
  8 42  1  0  0  0  0
 10 43  1  0  0  0  0
 11 44  1  0  0  0  0
 14 45  1  0  0  0  0
 15 46  1  0  0  0  0
 17 47  1  0  0  0  0
 18 48  1  0  0  0  0
 21 49  1  0  0  0  0
 24 50  1  0  0  0  0
 25 51  1  0  0  0  0
 26 52  1  0  0  0  0
 29 53  1  0  0  0  0
 30 54  1  0  0  0  0
 34 55  1  0  0  0  0
 34 56  1  0  0  0  0
 34 57  1  0  0  0  0
M  CHG  1   8   1
M  END
>  <docking-score>
-15.46

$$$$
1MZC_BNE_1
foFlexX   03232113463D 1   1.00000     0.00000     0
FlexX 4.5.0 fol007
 69 72  0  0  0  0            999 V2000
   17.6189  133.5725   -5.9177 C   0  0  0  0  0  0  0  0  0  0  0  0
   18.0115  134.4912   -7.0844 C   0  0  0  0  0  0  0  0  0  0  0  0
   17.3324  135.8522   -7.0798 C   0  0  2  0  0  0  0  0  0  0  0  0
   18.2135  136.8036   -6.2879 C   0  0  0  0  0  0  0  0  0  0  0  0
   19.2413  137.4916   -6.9248 C   0  0  0  0  0  0  0  0  0  0  0  0
   20.0355  138.3574   -6.1800 C   0  0  0  0  0  0  0  0  0  0  0  0
   19.8151  138.5403   -4.8189 C   0  0  0  0  0  0  0  0  0  0  0  0
   18.7821  137.8423   -4.2018 C   0  0  0  0  0  0  0  0  0  0  0  0
   18.5532  138.0207   -2.8290 O   0  0  0  0  0  0  0  0  0  0  0  0
   18.6103  137.0360   -1.9073 C   0  0  0  0  0  0  0  0  0  0  0  0
   19.8055  136.3437   -1.7434 C   0  0  0  0  0  0  0  0  0  0  0  0
   19.8717  135.3276   -0.7957 C   0  0  0  0  0  0  0  0  0  0  0  0
   21.1949  134.5513   -0.6051 C   0  0  2  0  0  0  0  0  0  0  0  0
   20.9655  133.0823   -0.1779 C   0  0  0  0  0  0  0  0  0  0  0  0
   21.9739  135.2382    0.4472 N   0  3  0  0  0  0  0  0  0  0  0  0
   21.9445  134.5175   -1.9280 C   0  0  0  0  0  0  0  0  0  0  0  0
   23.1935  135.0182   -2.1509 C   0  0  0  0  0  0  0  0  0  0  0  0
   23.4889  134.7803   -3.4604 N   0  0  0  0  0  0  0  0  0  0  0  0
   22.4687  134.1625   -4.0163 C   0  0  0  0  0  0  0  0  0  0  0  0
   21.4907  133.9763   -3.0893 N   0  0  0  0  0  0  0  0  0  0  0  0
   20.1897  133.3246   -3.3018 C   0  0  0  0  0  0  0  0  0  0  0  0
   18.7657  135.0000   -0.0181 C   0  0  0  0  0  0  0  0  0  0  0  0
   17.5757  135.6991   -0.1907 C   0  0  0  0  0  0  0  0  0  0  0  0
   17.4980  136.7174   -1.1353 C   0  0  0  0  0  0  0  0  0  0  0  0
   16.1976  137.4816   -1.3239 C   0  0  0  0  0  0  0  0  0  0  0  0
   15.2080  138.0641   -1.4678 N   0  0  0  0  0  0  0  0  0  0  0  0
   17.9758  136.9718   -4.9275 C   0  0  0  0  0  0  0  0  0  0  0  0
   16.0051  135.7923   -6.3339 C   0  0  0  0  0  0  0  0  0  0  0  0
   14.8280  135.2967   -7.1677 C   0  0  0  0  0  0  0  0  0  0  0  0
   14.1361  136.4503   -7.8756 C   0  0  0  0  0  0  0  0  0  0  0  0
   15.1526  137.5689   -8.0397 C   0  0  0  0  0  0  0  0  0  0  0  0
   16.2141  137.1842   -8.9830 N   0  0  0  0  0  0  0  0  0  0  0  0
   16.1607  137.6558  -10.3761 C   0  0  0  0  0  0  0  0  0  0  0  0
   17.2561  136.3679   -8.5131 C   0  0  0  0  0  0  0  0  0  0  0  0
   18.1360  136.0567   -9.2954 O   0  0  0  0  0  0  0  0  0  0  0  0
   16.6336  133.4034   -5.9436 H   0  0  0  0  0  0  0  0  0  0  0  0
   18.1083  132.7042   -5.9979 H   0  0  0  0  0  0  0  0  0  0  0  0
   17.8591  134.0118   -5.0521 H   0  0  0  0  0  0  0  0  0  0  0  0
   17.7747  134.0281   -7.9385 H   0  0  0  0  0  0  0  0  0  0  0  0
   19.0002  134.6365   -7.0470 H   0  0  0  0  0  0  0  0  0  0  0  0
   19.4065  137.3656   -7.9030 H   0  0  0  0  0  0  0  0  0  0  0  0
   20.7764  138.8560   -6.6301 H   0  0  0  0  0  0  0  0  0  0  0  0
   20.3911  139.1648   -4.2914 H   0  0  0  0  0  0  0  0  0  0  0  0
   20.6051  136.5730   -2.2984 H   0  0  0  0  0  0  0  0  0  0  0  0
   20.4610  133.0610    0.6853 H   0  0  0  0  0  0  0  0  0  0  0  0
   20.4389  132.6082   -0.8835 H   0  0  0  0  0  0  0  0  0  0  0  0
   21.8484  132.6279   -0.0592 H   0  0  0  0  0  0  0  0  0  0  0  0
   21.4499  135.2453    1.2988 H   0  0  0  0  0  0  0  0  0  0  0  0
   22.8376  134.7553    0.5912 H   0  0  0  0  0  0  0  0  0  0  0  0
   22.1611  136.1785    0.1631 H   0  0  0  0  0  0  0  0  0  0  0  0
   23.7806  135.4732   -1.4813 H   0  0  0  0  0  0  0  0  0  0  0  0
   22.4198  133.8744   -4.9726 H   0  0  0  0  0  0  0  0  0  0  0  0
   19.6686  133.3345   -2.4484 H   0  0  0  0  0  0  0  0  0  0  0  0
   19.6817  133.8172   -4.0084 H   0  0  0  0  0  0  0  0  0  0  0  0
   20.3342  132.3790   -3.5932 H   0  0  0  0  0  0  0  0  0  0  0  0
   18.8257  134.2674    0.6599 H   0  0  0  0  0  0  0  0  0  0  0  0
   16.7761  135.4698    0.3643 H   0  0  0  0  0  0  0  0  0  0  0  0
   17.2349  136.4734   -4.4773 H   0  0  0  0  0  0  0  0  0  0  0  0
   15.7897  136.7124   -6.0068 H   0  0  0  0  0  0  0  0  0  0  0  0
   16.1141  135.1778   -5.5526 H   0  0  0  0  0  0  0  0  0  0  0  0
   14.1712  134.8407   -6.5672 H   0  0  0  0  0  0  0  0  0  0  0  0
   15.1619  134.6471   -7.8508 H   0  0  0  0  0  0  0  0  0  0  0  0
   13.8096  136.1526   -8.7727 H   0  0  0  0  0  0  0  0  0  0  0  0
   13.3626  136.7706   -7.3288 H   0  0  0  0  0  0  0  0  0  0  0  0
   14.6882  138.3844   -8.3852 H   0  0  0  0  0  0  0  0  0  0  0  0
   15.5630  137.7706   -7.1504 H   0  0  0  0  0  0  0  0  0  0  0  0
   16.9520  137.3052  -10.8772 H   0  0  0  0  0  0  0  0  0  0  0  0
   15.3206  137.3269  -10.8074 H   0  0  0  0  0  0  0  0  0  0  0  0
   16.1734  138.6556  -10.3903 H   0  0  0  0  0  0  0  0  0  0  0  0
  1  2  1  0  0  0  0
  2  3  1  0  0  0  0
  3  4  1  0  0  0  0
  4  5  2  0  0  0  0
  5  6  1  0  0  0  0
  6  7  2  0  0  0  0
  7  8  1  0  0  0  0
  8  9  1  0  0  0  0
  9 10  1  0  0  0  0
 10 11  2  0  0  0  0
 11 12  1  0  0  0  0
 12 13  1  0  0  0  0
 13 14  1  0  0  0  0
 13 15  1  0  0  0  0
 13 16  1  0  0  0  0
 16 17  2  0  0  0  0
 17 18  1  0  0  0  0
 18 19  2  0  0  0  0
 19 20  1  0  0  0  0
 20 21  1  0  0  0  0
 12 22  2  0  0  0  0
 22 23  1  0  0  0  0
 23 24  2  0  0  0  0
 24 25  1  0  0  0  0
 25 26  3  0  0  0  0
  8 27  2  0  0  0  0
  3 28  1  0  0  0  0
 28 29  1  0  0  0  0
 29 30  1  0  0  0  0
 30 31  1  0  0  0  0
 31 32  1  0  0  0  0
 32 33  1  0  0  0  0
 32 34  1  0  0  0  0
 34 35  2  0  0  0  0
 34  3  1  0  0  0  0
 27  4  1  0  0  0  0
 24 10  1  0  0  0  0
 20 16  1  0  0  0  0
  1 36  1  0  0  0  0
  1 37  1  0  0  0  0
  1 38  1  0  0  0  0
  2 39  1  0  0  0  0
  2 40  1  0  0  0  0
  5 41  1  0  0  0  0
  6 42  1  0  0  0  0
  7 43  1  0  0  0  0
 11 44  1  0  0  0  0
 14 45  1  0  0  0  0
 14 46  1  0  0  0  0
 14 47  1  0  0  0  0
 15 48  1  0  0  0  0
 15 49  1  0  0  0  0
 15 50  1  0  0  0  0
 17 51  1  0  0  0  0
 19 52  1  0  0  0  0
 21 53  1  0  0  0  0
 21 54  1  0  0  0  0
 21 55  1  0  0  0  0
 22 56  1  0  0  0  0
 23 57  1  0  0  0  0
 27 58  1  0  0  0  0
 28 59  1  0  0  0  0
 28 60  1  0  0  0  0
 29 61  1  0  0  0  0
 29 62  1  0  0  0  0
 30 63  1  0  0  0  0
 30 64  1  0  0  0  0
 31 65  1  0  0  0  0
 31 66  1  0  0  0  0
 33 67  1  0  0  0  0
 33 68  1  0  0  0  0
 33 69  1  0  0  0  0
M  CHG  1  15   1
M  END
>  <docking-score>
-26.80

$$$$
1MZC_BNE_2
foFlexX   03232113463D 1   1.00000     0.00000     0
FlexX 4.5.0 fol007
 69 72  0  0  0  0            999 V2000
   15.7282  137.0674  -10.5130 C   0  0  0  0  0  0  0  0  0  0  0  0
   16.2849  135.9089   -9.6721 C   0  0  0  0  0  0  0  0  0  0  0  0
   16.4685  136.2242   -8.1961 C   0  0  2  0  0  0  0  0  0  0  0  0
   16.2749  134.9125   -7.4467 C   0  0  0  0  0  0  0  0  0  0  0  0
   15.1157  134.1676   -7.6378 C   0  0  0  0  0  0  0  0  0  0  0  0
   14.9601  132.9726   -6.9427 C   0  0  0  0  0  0  0  0  0  0  0  0
   15.9416  132.5197   -6.0673 C   0  0  0  0  0  0  0  0  0  0  0  0
   17.0929  133.2802   -5.8908 C   0  0  0  0  0  0  0  0  0  0  0  0
   18.0505  132.8476   -5.0424 O   0  0  0  0  0  0  0  0  0  0  0  0
   18.4920  133.5517   -3.9135 C   0  0  0  0  0  0  0  0  0  0  0  0
   19.5528  134.4403   -4.0538 C   0  0  0  0  0  0  0  0  0  0  0  0
   19.9965  135.1422   -2.9379 C   0  0  0  0  0  0  0  0  0  0  0  0
   21.1555  136.1159   -3.0796 C   0  0  2  0  0  0  0  0  0  0  0  0
   21.0883  137.2727   -2.0545 C   0  0  0  0  0  0  0  0  0  0  0  0
   21.1041  136.6837   -4.4437 N   0  3  0  0  0  0  0  0  0  0  0  0
   22.4734  135.3663   -2.8251 C   0  0  0  0  0  0  0  0  0  0  0  0
   23.2331  134.7435   -3.7714 C   0  0  0  0  0  0  0  0  0  0  0  0
   24.3102  134.2099   -3.1279 N   0  0  0  0  0  0  0  0  0  0  0  0
   24.2163  134.4914   -1.8460 C   0  0  0  0  0  0  0  0  0  0  0  0
   23.0875  135.2166   -1.6218 N   0  0  0  0  0  0  0  0  0  0  0  0
   22.6155  135.7320   -0.3280 C   0  0  0  0  0  0  0  0  0  0  0  0
   19.3961  134.9662   -1.6953 C   0  0  0  0  0  0  0  0  0  0  0  0
   18.3360  134.0750   -1.5670 C   0  0  0  0  0  0  0  0  0  0  0  0
   17.8837  133.3677   -2.6762 C   0  0  0  0  0  0  0  0  0  0  0  0
   16.7251  132.3937   -2.5360 C   0  0  0  0  0  0  0  0  0  0  0  0
   15.8428  131.6524   -2.4302 N   0  0  0  0  0  0  0  0  0  0  0  0
   17.2690  134.4778   -6.5759 C   0  0  0  0  0  0  0  0  0  0  0  0
   15.3555  137.2282   -7.8725 C   0  0  0  0  0  0  0  0  0  0  0  0
   15.1536  137.6884   -6.4243 C   0  0  0  0  0  0  0  0  0  0  0  0
   16.2959  137.5246   -5.4172 C   0  0  0  0  0  0  0  0  0  0  0  0
   17.6770  138.0656   -5.7941 C   0  0  0  0  0  0  0  0  0  0  0  0
   18.4373  137.4816   -6.9257 N   0  0  0  0  0  0  0  0  0  0  0  0
   19.8803  137.7642   -6.9614 C   0  0  0  0  0  0  0  0  0  0  0  0
   17.9234  136.6720   -7.9748 C   0  0  0  0  0  0  0  0  0  0  0  0
   18.7396  136.2860   -8.7995 O   0  0  0  0  0  0  0  0  0  0  0  0
   16.3517  137.8474  -10.4600 H   0  0  0  0  0  0  0  0  0  0  0  0
   15.6396  136.7756  -11.4654 H   0  0  0  0  0  0  0  0  0  0  0  0
   14.8308  137.3335  -10.1611 H   0  0  0  0  0  0  0  0  0  0  0  0
   17.1748  135.6508  -10.0483 H   0  0  0  0  0  0  0  0  0  0  0  0
   15.6539  135.1369   -9.7494 H   0  0  0  0  0  0  0  0  0  0  0  0
   14.4051  134.4862   -8.2651 H   0  0  0  0  0  0  0  0  0  0  0  0
   14.1299  132.4309   -7.0744 H   0  0  0  0  0  0  0  0  0  0  0  0
   15.8213  131.6595   -5.5718 H   0  0  0  0  0  0  0  0  0  0  0  0
   19.9899  134.5725   -4.9434 H   0  0  0  0  0  0  0  0  0  0  0  0
   20.2349  137.7790   -2.1787 H   0  0  0  0  0  0  0  0  0  0  0  0
   21.1224  136.8990   -1.1276 H   0  0  0  0  0  0  0  0  0  0  0  0
   21.8642  137.8877   -2.1947 H   0  0  0  0  0  0  0  0  0  0  0  0
   20.2339  137.1585   -4.5746 H   0  0  0  0  0  0  0  0  0  0  0  0
   21.8578  137.3297   -4.5645 H   0  0  0  0  0  0  0  0  0  0  0  0
   21.1860  135.9468   -5.1147 H   0  0  0  0  0  0  0  0  0  0  0  0
   23.0374  134.6887   -4.7505 H   0  0  0  0  0  0  0  0  0  0  0  0
   24.8734  134.2149   -1.1447 H   0  0  0  0  0  0  0  0  0  0  0  0
   21.7541  136.2229   -0.4590 H   0  0  0  0  0  0  0  0  0  0  0  0
   22.4719  134.9691    0.3024 H   0  0  0  0  0  0  0  0  0  0  0  0
   23.2994  136.3546    0.0524 H   0  0  0  0  0  0  0  0  0  0  0  0
   19.7242  135.4765   -0.9004 H   0  0  0  0  0  0  0  0  0  0  0  0
   17.8990  133.9426   -0.6773 H   0  0  0  0  0  0  0  0  0  0  0  0
   18.0993  135.0194   -6.4442 H   0  0  0  0  0  0  0  0  0  0  0  0
   14.4949  136.8143   -8.1691 H   0  0  0  0  0  0  0  0  0  0  0  0
   15.5360  138.0480   -8.4160 H   0  0  0  0  0  0  0  0  0  0  0  0
   14.3718  137.1800   -6.0634 H   0  0  0  0  0  0  0  0  0  0  0  0
   14.9313  138.6629   -6.4566 H   0  0  0  0  0  0  0  0  0  0  0  0
   16.0168  137.9857   -4.5749 H   0  0  0  0  0  0  0  0  0  0  0  0
   16.3989  136.5453   -5.2427 H   0  0  0  0  0  0  0  0  0  0  0  0
   17.5561  139.0363   -6.0022 H   0  0  0  0  0  0  0  0  0  0  0  0
   18.2530  137.9679   -4.9825 H   0  0  0  0  0  0  0  0  0  0  0  0
   20.2877  137.3184   -7.7585 H   0  0  0  0  0  0  0  0  0  0  0  0
   20.0252  138.7518   -7.0214 H   0  0  0  0  0  0  0  0  0  0  0  0
   20.3092  137.4144   -6.1285 H   0  0  0  0  0  0  0  0  0  0  0  0
  1  2  1  0  0  0  0
  2  3  1  0  0  0  0
  3  4  1  0  0  0  0
  4  5  2  0  0  0  0
  5  6  1  0  0  0  0
  6  7  2  0  0  0  0
  7  8  1  0  0  0  0
  8  9  1  0  0  0  0
  9 10  1  0  0  0  0
 10 11  2  0  0  0  0
 11 12  1  0  0  0  0
 12 13  1  0  0  0  0
 13 14  1  0  0  0  0
 13 15  1  0  0  0  0
 13 16  1  0  0  0  0
 16 17  2  0  0  0  0
 17 18  1  0  0  0  0
 18 19  2  0  0  0  0
 19 20  1  0  0  0  0
 20 21  1  0  0  0  0
 12 22  2  0  0  0  0
 22 23  1  0  0  0  0
 23 24  2  0  0  0  0
 24 25  1  0  0  0  0
 25 26  3  0  0  0  0
  8 27  2  0  0  0  0
  3 28  1  0  0  0  0
 28 29  1  0  0  0  0
 29 30  1  0  0  0  0
 30 31  1  0  0  0  0
 31 32  1  0  0  0  0
 32 33  1  0  0  0  0
 32 34  1  0  0  0  0
 34 35  2  0  0  0  0
 34  3  1  0  0  0  0
 27  4  1  0  0  0  0
 24 10  1  0  0  0  0
 20 16  1  0  0  0  0
  1 36  1  0  0  0  0
  1 37  1  0  0  0  0
  1 38  1  0  0  0  0
  2 39  1  0  0  0  0
  2 40  1  0  0  0  0
  5 41  1  0  0  0  0
  6 42  1  0  0  0  0
  7 43  1  0  0  0  0
 11 44  1  0  0  0  0
 14 45  1  0  0  0  0
 14 46  1  0  0  0  0
 14 47  1  0  0  0  0
 15 48  1  0  0  0  0
 15 49  1  0  0  0  0
 15 50  1  0  0  0  0
 17 51  1  0  0  0  0
 19 52  1  0  0  0  0
 21 53  1  0  0  0  0
 21 54  1  0  0  0  0
 21 55  1  0  0  0  0
 22 56  1  0  0  0  0
 23 57  1  0  0  0  0
 27 58  1  0  0  0  0
 28 59  1  0  0  0  0
 28 60  1  0  0  0  0
 29 61  1  0  0  0  0
 29 62  1  0  0  0  0
 30 63  1  0  0  0  0
 30 64  1  0  0  0  0
 31 65  1  0  0  0  0
 31 66  1  0  0  0  0
 33 67  1  0  0  0  0
 33 68  1  0  0  0  0
 33 69  1  0  0  0  0
M  CHG  1  15   1
M  END
>  <docking-score>
-25.39

$$$$
1MZC_BNE_3
foFlexX   03232113463D 1   1.00000     0.00000     0
FlexX 4.5.0 fol007
 69 72  0  0  0  0            999 V2000
   15.4401  137.5629   -9.8558 C   0  0  0  0  0  0  0  0  0  0  0  0
   16.0035  136.2521   -9.2870 C   0  0  0  0  0  0  0  0  0  0  0  0
   16.5512  136.3553   -7.8717 C   0  0  2  0  0  0  0  0  0  0  0  0
   16.3618  135.0011   -7.2042 C   0  0  0  0  0  0  0  0  0  0  0  0
   15.1071  134.4003   -7.1953 C   0  0  0  0  0  0  0  0  0  0  0  0
   14.9572  133.1621   -6.5791 C   0  0  0  0  0  0  0  0  0  0  0  0
   16.0377  132.5252   -5.9778 C   0  0  0  0  0  0  0  0  0  0  0  0
   17.2836  133.1438   -5.9981 C   0  0  0  0  0  0  0  0  0  0  0  0
   18.3377  132.5322   -5.4161 O   0  0  0  0  0  0  0  0  0  0  0  0
   18.7144  132.6973   -4.0760 C   0  0  0  0  0  0  0  0  0  0  0  0
   19.9806  133.2002   -3.7957 C   0  0  0  0  0  0  0  0  0  0  0  0
   20.3614  133.3665   -2.4683 C   0  0  0  0  0  0  0  0  0  0  0  0
   21.7431  133.9151   -2.1502 C   0  0  2  0  0  0  0  0  0  0  0  0
   22.8781  133.0455   -2.7408 C   0  0  0  0  0  0  0  0  0  0  0  0
   21.8867  133.9523   -0.6792 N   0  3  0  0  0  0  0  0  0  0  0  0
   21.8810  135.3152   -2.7703 C   0  0  0  0  0  0  0  0  0  0  0  0
   22.3375  135.5909   -4.0257 C   0  0  0  0  0  0  0  0  0  0  0  0
   22.2971  136.9455   -4.1744 N   0  0  0  0  0  0  0  0  0  0  0  0
   21.8377  137.4773   -3.0619 C   0  0  0  0  0  0  0  0  0  0  0  0
   21.5616  136.4907   -2.1671 N   0  0  0  0  0  0  0  0  0  0  0  0
   21.0297  136.6603   -0.8067 C   0  0  0  0  0  0  0  0  0  0  0  0
   19.4974  133.0381   -1.4285 C   0  0  0  0  0  0  0  0  0  0  0  0
   18.2336  132.5361   -1.7208 C   0  0  0  0  0  0  0  0  0  0  0  0
   17.8419  132.3658   -3.0447 C   0  0  0  0  0  0  0  0  0  0  0  0
   16.4608  131.8172   -3.3642 C   0  0  0  0  0  0  0  0  0  0  0  0
   15.4093  131.4001   -3.6083 N   0  0  0  0  0  0  0  0  0  0  0  0
   17.4558  134.3815   -6.6087 C   0  0  0  0  0  0  0  0  0  0  0  0
   15.7379  137.3455   -7.0474 C   0  0  0  0  0  0  0  0  0  0  0  0
   16.1425  138.8053   -7.2249 C   0  0  0  0  0  0  0  0  0  0  0  0
   17.2271  139.1958   -6.2341 C   0  0  0  0  0  0  0  0  0  0  0  0
   17.9742  137.9305   -5.8435 C   0  0  0  0  0  0  0  0  0  0  0  0
   18.7365  137.3943   -6.9818 N   0  0  0  0  0  0  0  0  0  0  0  0
   20.1803  137.6601   -7.0854 C   0  0  0  0  0  0  0  0  0  0  0  0
   18.0485  136.6366   -7.9437 C   0  0  0  0  0  0  0  0  0  0  0  0
   18.6842  136.1893   -8.8813 O   0  0  0  0  0  0  0  0  0  0  0  0
   16.1616  138.2551   -9.8754 H   0  0  0  0  0  0  0  0  0  0  0  0
   15.1034  137.4059  -10.7842 H   0  0  0  0  0  0  0  0  0  0  0  0
   14.6885  137.8812   -9.2781 H   0  0  0  0  0  0  0  0  0  0  0  0
   16.7436  135.9457   -9.8856 H   0  0  0  0  0  0  0  0  0  0  0  0
   15.2705  135.5719   -9.2882 H   0  0  0  0  0  0  0  0  0  0  0  0
   14.3251  134.8515   -7.6251 H   0  0  0  0  0  0  0  0  0  0  0  0
   14.0587  132.7231   -6.5683 H   0  0  0  0  0  0  0  0  0  0  0  0
   15.9207  131.6352   -5.5372 H   0  0  0  0  0  0  0  0  0  0  0  0
   20.6077  133.4386   -4.5373 H   0  0  0  0  0  0  0  0  0  0  0  0
   22.8148  132.1186   -2.3709 H   0  0  0  0  0  0  0  0  0  0  0  0
   22.7901  133.0138   -3.7364 H   0  0  0  0  0  0  0  0  0  0  0  0
   23.7632  133.4420   -2.4969 H   0  0  0  0  0  0  0  0  0  0  0  0
   21.3403  133.2202   -0.2724 H   0  0  0  0  0  0  0  0  0  0  0  0
   22.8481  133.8259   -0.4348 H   0  0  0  0  0  0  0  0  0  0  0  0
   21.5687  134.8359   -0.3355 H   0  0  0  0  0  0  0  0  0  0  0  0
   22.6435  134.9261   -4.7072 H   0  0  0  0  0  0  0  0  0  0  0  0
   21.7110  138.4558   -2.8993 H   0  0  0  0  0  0  0  0  0  0  0  0
   20.9322  135.7646   -0.3729 H   0  0  0  0  0  0  0  0  0  0  0  0
   21.6586  137.2236   -0.2708 H   0  0  0  0  0  0  0  0  0  0  0  0
   20.1367  137.1080   -0.8514 H   0  0  0  0  0  0  0  0  0  0  0  0
   19.7828  133.1620   -0.4782 H   0  0  0  0  0  0  0  0  0  0  0  0
   17.6066  132.2976   -0.9792 H   0  0  0  0  0  0  0  0  0  0  0  0
   18.3544  134.8203   -6.6196 H   0  0  0  0  0  0  0  0  0  0  0  0
   15.8437  137.1081   -6.0817 H   0  0  0  0  0  0  0  0  0  0  0  0
   14.7772  137.2543   -7.3097 H   0  0  0  0  0  0  0  0  0  0  0  0
   15.3419  139.3864   -7.0788 H   0  0  0  0  0  0  0  0  0  0  0  0
   16.4859  138.9385   -8.1546 H   0  0  0  0  0  0  0  0  0  0  0  0
   17.8574  139.8462   -6.6580 H   0  0  0  0  0  0  0  0  0  0  0  0
   16.8143  139.6114   -5.4236 H   0  0  0  0  0  0  0  0  0  0  0  0
   18.6058  138.1411   -5.0973 H   0  0  0  0  0  0  0  0  0  0  0  0
   17.3153  137.2429   -5.5384 H   0  0  0  0  0  0  0  0  0  0  0  0
   20.5405  137.2270   -7.9116 H   0  0  0  0  0  0  0  0  0  0  0  0
   20.3351  138.6469   -7.1318 H   0  0  0  0  0  0  0  0  0  0  0  0
   20.6464  137.2869   -6.2832 H   0  0  0  0  0  0  0  0  0  0  0  0
  1  2  1  0  0  0  0
  2  3  1  0  0  0  0
  3  4  1  0  0  0  0
  4  5  2  0  0  0  0
  5  6  1  0  0  0  0
  6  7  2  0  0  0  0
  7  8  1  0  0  0  0
  8  9  1  0  0  0  0
  9 10  1  0  0  0  0
 10 11  2  0  0  0  0
 11 12  1  0  0  0  0
 12 13  1  0  0  0  0
 13 14  1  0  0  0  0
 13 15  1  0  0  0  0
 13 16  1  0  0  0  0
 16 17  2  0  0  0  0
 17 18  1  0  0  0  0
 18 19  2  0  0  0  0
 19 20  1  0  0  0  0
 20 21  1  0  0  0  0
 12 22  2  0  0  0  0
 22 23  1  0  0  0  0
 23 24  2  0  0  0  0
 24 25  1  0  0  0  0
 25 26  3  0  0  0  0
  8 27  2  0  0  0  0
  3 28  1  0  0  0  0
 28 29  1  0  0  0  0
 29 30  1  0  0  0  0
 30 31  1  0  0  0  0
 31 32  1  0  0  0  0
 32 33  1  0  0  0  0
 32 34  1  0  0  0  0
 34 35  2  0  0  0  0
 34  3  1  0  0  0  0
 27  4  1  0  0  0  0
 24 10  1  0  0  0  0
 20 16  1  0  0  0  0
  1 36  1  0  0  0  0
  1 37  1  0  0  0  0
  1 38  1  0  0  0  0
  2 39  1  0  0  0  0
  2 40  1  0  0  0  0
  5 41  1  0  0  0  0
  6 42  1  0  0  0  0
  7 43  1  0  0  0  0
 11 44  1  0  0  0  0
 14 45  1  0  0  0  0
 14 46  1  0  0  0  0
 14 47  1  0  0  0  0
 15 48  1  0  0  0  0
 15 49  1  0  0  0  0
 15 50  1  0  0  0  0
 17 51  1  0  0  0  0
 19 52  1  0  0  0  0
 21 53  1  0  0  0  0
 21 54  1  0  0  0  0
 21 55  1  0  0  0  0
 22 56  1  0  0  0  0
 23 57  1  0  0  0  0
 27 58  1  0  0  0  0
 28 59  1  0  0  0  0
 28 60  1  0  0  0  0
 29 61  1  0  0  0  0
 29 62  1  0  0  0  0
 30 63  1  0  0  0  0
 30 64  1  0  0  0  0
 31 65  1  0  0  0  0
 31 66  1  0  0  0  0
 33 67  1  0  0  0  0
 33 68  1  0  0  0  0
 33 69  1  0  0  0  0
M  CHG  1  15   1
M  END
>  <docking-score>
-24.79

$$$$
1LD7_U66_1
foFlexX   03232113463D 1   1.00000     0.00000     0
FlexX 4.5.0 fol007
 62 67  0  0  0  0            999 V2000
   16.3019  137.6382   -3.4083 N   0  0  0  0  0  0  0  0  0  0  0  0
   16.4807  137.9181   -2.2994 C   0  0  0  0  0  0  0  0  0  0  0  0
   16.7041  138.2719   -0.8828 C   0  0  1  0  0  0  0  0  0  0  0  0
   15.6536  137.5715   -0.0051 C   0  0  0  0  0  0  0  0  0  0  0  0
   15.8780  136.0787    0.0587 C   0  0  0  0  0  0  0  0  0  0  0  0
   17.0967  135.5163   -0.1060 C   0  0  0  0  0  0  0  0  0  0  0  0
   18.3204  136.3427   -0.4487 C   0  0  0  0  0  0  0  0  0  0  0  0
   18.1076  137.8656   -0.3784 C   0  0  1  0  0  0  0  0  0  0  0  0
   19.1775  138.5922   -1.0096 O   0  0  0  0  0  0  0  0  0  0  0  0
   19.4631  138.5716   -2.3814 C   0  0  0  0  0  0  0  0  0  0  0  0
   18.9868  139.6041   -3.1919 C   0  0  0  0  0  0  0  0  0  0  0  0
   19.2074  139.5791   -4.5673 C   0  0  0  0  0  0  0  0  0  0  0  0
   19.9107  138.5162   -5.1524 C   0  0  0  0  0  0  0  0  0  0  0  0
   20.0990  138.4889   -6.5401 C   0  0  0  0  0  0  0  0  0  0  0  0
   20.7879  137.4358   -7.1339 C   0  0  0  0  0  0  0  0  0  0  0  0
   21.2976  136.4002   -6.3534 C   0  0  0  0  0  0  0  0  0  0  0  0
   21.1357  136.3983   -4.9567 C   0  0  0  0  0  0  0  0  0  0  0  0
   20.4336  137.4721   -4.3402 C   0  0  0  0  0  0  0  0  0  0  0  0
   20.2407  137.5457   -2.9435 C   0  0  0  0  0  0  0  0  0  0  0  0
   21.6680  135.2933   -4.1972 N   0  0  0  0  0  0  0  0  0  0  0  0
   23.0068  134.7392   -4.3568 C   0  0  0  0  0  0  0  0  0  0  0  0
   22.9423  133.3178   -3.7666 C   0  0  0  0  0  0  0  0  0  0  0  0
   21.7253  133.3003   -2.8200 C   0  0  1  0  0  0  0  0  0  0  0  0
   22.1667  133.5646   -1.4306 N   0  3  0  0  0  0  0  0  0  0  0  0
   21.0834  133.8534   -0.4757 C   0  0  0  0  0  0  0  0  0  0  0  0
   20.1410  132.6629   -0.2426 C   0  0  0  0  0  0  0  0  0  0  0  0
   19.2676  132.9194    0.9601 C   0  0  0  0  0  0  0  0  0  0  0  0
   19.6311  132.6535    2.2633 C   0  0  0  0  0  0  0  0  0  0  0  0
   18.6639  133.0833    3.0977 N   0  0  0  0  0  0  0  0  0  0  0  0
   17.7284  133.6143    2.2833 C   0  0  0  0  0  0  0  0  0  0  0  0
   18.0684  133.5433    0.9800 N   0  0  0  0  0  0  0  0  0  0  0  0
   17.2400  134.0097   -0.1343 C   0  0  0  0  0  0  0  0  0  0  0  0
   20.9091  134.4093   -3.3895 C   0  0  0  0  0  0  0  0  0  0  0  0
   19.6573  134.4902   -3.2712 O   0  0  0  0  0  0  0  0  0  0  0  0
   16.6002  139.2611   -0.7793 H   0  0  0  0  0  0  0  0  0  0  0  0
   14.7456  137.7460   -0.3860 H   0  0  0  0  0  0  0  0  0  0  0  0
   15.7042  137.9459    0.9208 H   0  0  0  0  0  0  0  0  0  0  0  0
   15.0936  135.4825    0.2297 H   0  0  0  0  0  0  0  0  0  0  0  0
   18.6028  136.1102   -1.3794 H   0  0  0  0  0  0  0  0  0  0  0  0
   19.0495  136.1001    0.1912 H   0  0  0  0  0  0  0  0  0  0  0  0
   18.1380  138.1083    0.5912 H   0  0  0  0  0  0  0  0  0  0  0  0
   18.4844  140.3659   -2.7827 H   0  0  0  0  0  0  0  0  0  0  0  0
   18.8627  140.3228   -5.1401 H   0  0  0  0  0  0  0  0  0  0  0  0
   19.7369  139.2293   -7.1064 H   0  0  0  0  0  0  0  0  0  0  0  0
   20.9178  137.4221   -8.1253 H   0  0  0  0  0  0  0  0  0  0  0  0
   21.7860  135.6467   -6.7934 H   0  0  0  0  0  0  0  0  0  0  0  0
   20.6617  136.8608   -2.3487 H   0  0  0  0  0  0  0  0  0  0  0  0
   23.6749  135.2931   -3.8600 H   0  0  0  0  0  0  0  0  0  0  0  0
   23.2566  134.7040   -5.3245 H   0  0  0  0  0  0  0  0  0  0  0  0
   23.7795  133.1149   -3.2587 H   0  0  0  0  0  0  0  0  0  0  0  0
   22.8237  132.6444   -4.4963 H   0  0  0  0  0  0  0  0  0  0  0  0
   21.2374  132.4295   -2.8808 H   0  0  0  0  0  0  0  0  0  0  0  0
   22.7841  134.3510   -1.4459 H   0  0  0  0  0  0  0  0  0  0  0  0
   22.6610  132.7590   -1.1040 H   0  0  0  0  0  0  0  0  0  0  0  0
   20.5456  134.6189   -0.8287 H   0  0  0  0  0  0  0  0  0  0  0  0
   21.4929  134.1095    0.4000 H   0  0  0  0  0  0  0  0  0  0  0  0
   20.6835  131.8374   -0.0872 H   0  0  0  0  0  0  0  0  0  0  0  0
   19.5638  132.5355   -1.0492 H   0  0  0  0  0  0  0  0  0  0  0  0
   20.4816  132.2100    2.5460 H   0  0  0  0  0  0  0  0  0  0  0  0
   16.8740  134.0175    2.6110 H   0  0  0  0  0  0  0  0  0  0  0  0
   16.3336  133.5931   -0.0653 H   0  0  0  0  0  0  0  0  0  0  0  0
   17.6673  133.7375   -0.9964 H   0  0  0  0  0  0  0  0  0  0  0  0
  1  2  3  0  0  0  0
  2  3  1  0  0  0  0
  3  4  1  0  0  0  0
  4  5  1  0  0  0  0
  5  6  2  0  0  0  0
  6  7  1  0  0  0  0
  7  8  1  0  0  0  0
  8  9  1  0  0  0  0
  9 10  1  0  0  0  0
 10 11  2  0  0  0  0
 11 12  1  0  0  0  0
 12 13  2  0  0  0  0
 13 14  1  0  0  0  0
 14 15  2  0  0  0  0
 15 16  1  0  0  0  0
 16 17  2  0  0  0  0
 17 18  1  0  0  0  0
 18 19  2  0  0  0  0
 17 20  1  0  0  0  0
 20 21  1  0  0  0  0
 21 22  1  0  0  0  0
 22 23  1  0  0  0  0
 23 24  1  0  0  0  0
 24 25  1  0  0  0  0
 25 26  1  0  0  0  0
 26 27  1  0  0  0  0
 27 28  2  0  0  0  0
 28 29  1  0  0  0  0
 29 30  2  0  0  0  0
 30 31  1  0  0  0  0
 31 32  1  0  0  0  0
 23 33  1  0  0  0  0
 33 34  2  0  0  0  0
  8  3  1  0  0  0  0
 19 10  1  0  0  0  0
 33 20  1  0  0  0  0
 32  6  1  0  0  0  0
 18 13  1  0  0  0  0
 31 27  1  0  0  0  0
  3 35  1  0  0  0  0
  4 36  1  0  0  0  0
  4 37  1  0  0  0  0
  5 38  1  0  0  0  0
  7 39  1  0  0  0  0
  7 40  1  0  0  0  0
  8 41  1  0  0  0  0
 11 42  1  0  0  0  0
 12 43  1  0  0  0  0
 14 44  1  0  0  0  0
 15 45  1  0  0  0  0
 16 46  1  0  0  0  0
 19 47  1  0  0  0  0
 21 48  1  0  0  0  0
 21 49  1  0  0  0  0
 22 50  1  0  0  0  0
 22 51  1  0  0  0  0
 23 52  1  0  0  0  0
 24 53  1  0  0  0  0
 24 54  1  0  0  0  0
 25 55  1  0  0  0  0
 25 56  1  0  0  0  0
 26 57  1  0  0  0  0
 26 58  1  0  0  0  0
 28 59  1  0  0  0  0
 30 60  1  0  0  0  0
 32 61  1  0  0  0  0
 32 62  1  0  0  0  0
M  CHG  1  24   1
M  END
>  <docking-score>
-19.90

$$$$
1LD7_U66_2
foFlexX   03232113463D 1   1.00000     0.00000     0
FlexX 4.5.0 fol007
 62 67  0  0  0  0            999 V2000
   16.0772  136.2194   -3.8362 N   0  0  0  0  0  0  0  0  0  0  0  0
   16.0396  136.4813   -2.7092 C   0  0  0  0  0  0  0  0  0  0  0  0
   15.9883  136.8106   -1.2702 C   0  0  1  0  0  0  0  0  0  0  0  0
   15.1556  135.7515   -0.5288 C   0  0  0  0  0  0  0  0  0  0  0  0
   15.8650  134.4189   -0.4679 C   0  0  0  0  0  0  0  0  0  0  0  0
   17.2121  134.3069   -0.5055 C   0  0  0  0  0  0  0  0  0  0  0  0
   18.1111  135.5129   -0.6936 C   0  0  0  0  0  0  0  0  0  0  0  0
   17.3891  136.8703   -0.6194 C   0  0  1  0  0  0  0  0  0  0  0  0
   18.2066  137.9469   -1.1132 O   0  0  0  0  0  0  0  0  0  0  0  0
   18.6168  138.0989   -2.4445 C   0  0  0  0  0  0  0  0  0  0  0  0
   17.9017  138.9556   -3.2839 C   0  0  0  0  0  0  0  0  0  0  0  0
   18.2531  139.0820   -4.6262 C   0  0  0  0  0  0  0  0  0  0  0  0
   19.3291  138.3498   -5.1485 C   0  0  0  0  0  0  0  0  0  0  0  0
   19.6522  138.4639   -6.5066 C   0  0  0  0  0  0  0  0  0  0  0  0
   20.7124  137.7367   -7.0388 C   0  0  0  0  0  0  0  0  0  0  0  0
   21.4627  136.8900   -6.2255 C   0  0  0  0  0  0  0  0  0  0  0  0
   21.1734  136.7568   -4.8560 C   0  0  0  0  0  0  0  0  0  0  0  0
   20.0915  137.4978   -4.3023 C   0  0  0  0  0  0  0  0  0  0  0  0
   19.7476  137.4252   -2.9349 C   0  0  0  0  0  0  0  0  0  0  0  0
   21.9704  135.8535   -4.0623 N   0  0  0  0  0  0  0  0  0  0  0  0
   23.4266  135.7893   -4.0811 C   0  0  0  0  0  0  0  0  0  0  0  0
   23.7893  134.3979   -3.5283 C   0  0  0  0  0  0  0  0  0  0  0  0
   22.5626  133.9218   -2.7245 C   0  0  1  0  0  0  0  0  0  0  0  0
   22.7483  134.2413   -1.2897 N   0  3  0  0  0  0  0  0  0  0  0  0
   21.5422  134.0976   -0.4570 C   0  0  0  0  0  0  0  0  0  0  0  0
   21.0406  132.6494   -0.3531 C   0  0  0  0  0  0  0  0  0  0  0  0
   20.0173  132.5318    0.7488 C   0  0  0  0  0  0  0  0  0  0  0  0
   20.3182  132.3313    2.0794 C   0  0  0  0  0  0  0  0  0  0  0  0
   19.1849  132.3657    2.8080 N   0  0  0  0  0  0  0  0  0  0  0  0
   18.2105  132.5971    1.9039 C   0  0  0  0  0  0  0  0  0  0  0  0
   18.6819  132.7162    0.6458 N   0  0  0  0  0  0  0  0  0  0  0  0
   17.8594  132.9392   -0.5455 C   0  0  0  0  0  0  0  0  0  0  0  0
   21.4798  134.7233   -3.3611 C   0  0  0  0  0  0  0  0  0  0  0  0
   20.2694  134.3738   -3.3824 O   0  0  0  0  0  0  0  0  0  0  0  0
   15.5457  137.7006   -1.1607 H   0  0  0  0  0  0  0  0  0  0  0  0
   14.2848  135.6328   -1.0058 H   0  0  0  0  0  0  0  0  0  0  0  0
   14.9843  136.0696    0.4036 H   0  0  0  0  0  0  0  0  0  0  0  0
   15.3161  133.5860   -0.3970 H   0  0  0  0  0  0  0  0  0  0  0  0
   18.5463  135.4402   -1.5910 H   0  0  0  0  0  0  0  0  0  0  0  0
   18.8119  135.4933    0.0194 H   0  0  0  0  0  0  0  0  0  0  0  0
   17.2391  137.0551    0.3519 H   0  0  0  0  0  0  0  0  0  0  0  0
   17.1331  139.4813   -2.9196 H   0  0  0  0  0  0  0  0  0  0  0  0
   17.7354  139.6978   -5.2201 H   0  0  0  0  0  0  0  0  0  0  0  0
   19.1188  139.0705   -7.0961 H   0  0  0  0  0  0  0  0  0  0  0  0
   20.9369  137.8221   -8.0096 H   0  0  0  0  0  0  0  0  0  0  0  0
   22.2186  136.3690   -6.6219 H   0  0  0  0  0  0  0  0  0  0  0  0
   20.3145  136.8890   -2.3094 H   0  0  0  0  0  0  0  0  0  0  0  0
   23.8148  136.5065   -3.5024 H   0  0  0  0  0  0  0  0  0  0  0  0
   23.7682  135.8933   -5.0152 H   0  0  0  0  0  0  0  0  0  0  0  0
   24.5909  134.4593   -2.9336 H   0  0  0  0  0  0  0  0  0  0  0  0
   23.9788  133.7651   -4.2790 H   0  0  0  0  0  0  0  0  0  0  0  0
   22.4071  132.9427   -2.8557 H   0  0  0  0  0  0  0  0  0  0  0  0
   23.0611  135.1887   -1.2211 H   0  0  0  0  0  0  0  0  0  0  0  0
   23.4513  133.6309   -0.9248 H   0  0  0  0  0  0  0  0  0  0  0  0
   20.8146  134.6572   -0.8538 H   0  0  0  0  0  0  0  0  0  0  0  0
   21.7517  134.4272    0.4636 H   0  0  0  0  0  0  0  0  0  0  0  0
   21.8125  132.0458   -0.1532 H   0  0  0  0  0  0  0  0  0  0  0  0
   20.6237  132.3809   -1.2215 H   0  0  0  0  0  0  0  0  0  0  0  0
   21.2362  132.1832    2.4472 H   0  0  0  0  0  0  0  0  0  0  0  0
   17.2420  132.6723    2.1412 H   0  0  0  0  0  0  0  0  0  0  0  0
   17.1456  132.2401   -0.5862 H   0  0  0  0  0  0  0  0  0  0  0  0
   18.4369  132.8738   -1.3592 H   0  0  0  0  0  0  0  0  0  0  0  0
  1  2  3  0  0  0  0
  2  3  1  0  0  0  0
  3  4  1  0  0  0  0
  4  5  1  0  0  0  0
  5  6  2  0  0  0  0
  6  7  1  0  0  0  0
  7  8  1  0  0  0  0
  8  9  1  0  0  0  0
  9 10  1  0  0  0  0
 10 11  2  0  0  0  0
 11 12  1  0  0  0  0
 12 13  2  0  0  0  0
 13 14  1  0  0  0  0
 14 15  2  0  0  0  0
 15 16  1  0  0  0  0
 16 17  2  0  0  0  0
 17 18  1  0  0  0  0
 18 19  2  0  0  0  0
 17 20  1  0  0  0  0
 20 21  1  0  0  0  0
 21 22  1  0  0  0  0
 22 23  1  0  0  0  0
 23 24  1  0  0  0  0
 24 25  1  0  0  0  0
 25 26  1  0  0  0  0
 26 27  1  0  0  0  0
 27 28  2  0  0  0  0
 28 29  1  0  0  0  0
 29 30  2  0  0  0  0
 30 31  1  0  0  0  0
 31 32  1  0  0  0  0
 23 33  1  0  0  0  0
 33 34  2  0  0  0  0
  8  3  1  0  0  0  0
 19 10  1  0  0  0  0
 33 20  1  0  0  0  0
 32  6  1  0  0  0  0
 18 13  1  0  0  0  0
 31 27  1  0  0  0  0
  3 35  1  0  0  0  0
  4 36  1  0  0  0  0
  4 37  1  0  0  0  0
  5 38  1  0  0  0  0
  7 39  1  0  0  0  0
  7 40  1  0  0  0  0
  8 41  1  0  0  0  0
 11 42  1  0  0  0  0
 12 43  1  0  0  0  0
 14 44  1  0  0  0  0
 15 45  1  0  0  0  0
 16 46  1  0  0  0  0
 19 47  1  0  0  0  0
 21 48  1  0  0  0  0
 21 49  1  0  0  0  0
 22 50  1  0  0  0  0
 22 51  1  0  0  0  0
 23 52  1  0  0  0  0
 24 53  1  0  0  0  0
 24 54  1  0  0  0  0
 25 55  1  0  0  0  0
 25 56  1  0  0  0  0
 26 57  1  0  0  0  0
 26 58  1  0  0  0  0
 28 59  1  0  0  0  0
 30 60  1  0  0  0  0
 32 61  1  0  0  0  0
 32 62  1  0  0  0  0
M  CHG  1  24   1
M  END
>  <docking-score>
-19.02

$$$$
1LD7_U66_3
foFlexX   03232113463D 1   1.00000     0.00000     0
FlexX 4.5.0 fol007
 62 67  0  0  0  0            999 V2000
   16.0713  137.3098   -2.8933 N   0  0  0  0  0  0  0  0  0  0  0  0
   16.3645  137.6131   -1.8154 C   0  0  0  0  0  0  0  0  0  0  0  0
   16.7348  137.9960   -0.4377 C   0  0  1  0  0  0  0  0  0  0  0  0
   15.9117  137.1706    0.5653 C   0  0  0  0  0  0  0  0  0  0  0  0
   16.3287  135.7185    0.5756 C   0  0  0  0  0  0  0  0  0  0  0  0
   17.5740  135.3144    0.2371 C   0  0  0  0  0  0  0  0  0  0  0  0
   18.6251  136.2882   -0.2578 C   0  0  0  0  0  0  0  0  0  0  0  0
   18.2342  137.7720   -0.1364 C   0  0  1  0  0  0  0  0  0  0  0  0
   19.1070  138.6266   -0.8974 O   0  0  0  0  0  0  0  0  0  0  0  0
   19.2012  138.6386   -2.2956 C   0  0  0  0  0  0  0  0  0  0  0  0
   18.4917  139.6004   -3.0177 C   0  0  0  0  0  0  0  0  0  0  0  0
   18.5221  139.5998   -4.4106 C   0  0  0  0  0  0  0  0  0  0  0  0
   19.2659  138.6329   -5.1023 C   0  0  0  0  0  0  0  0  0  0  0  0
   19.2632  138.6260   -6.5029 C   0  0  0  0  0  0  0  0  0  0  0  0
   19.9906  137.6670   -7.2010 C   0  0  0  0  0  0  0  0  0  0  0  0
   20.7291  136.7064   -6.5132 C   0  0  0  0  0  0  0  0  0  0  0  0
   20.7628  136.6877   -5.1076 C   0  0  0  0  0  0  0  0  0  0  0  0
   20.0229  137.6656   -4.3849 C   0  0  0  0  0  0  0  0  0  0  0  0
   20.0166  137.7179   -2.9741 C   0  0  0  0  0  0  0  0  0  0  0  0
   21.5293  135.6610   -4.4448 N   0  0  0  0  0  0  0  0  0  0  0  0
   22.8923  135.2804   -4.7945 C   0  0  0  0  0  0  0  0  0  0  0  0
   23.0891  133.8638   -4.2221 C   0  0  0  0  0  0  0  0  0  0  0  0
   22.0260  133.6950   -3.1181 C   0  0  1  0  0  0  0  0  0  0  0  0
   22.6179  134.0167   -1.7985 N   0  3  0  0  0  0  0  0  0  0  0  0
   21.6490  134.1686   -0.7000 C   0  0  0  0  0  0  0  0  0  0  0  0
   20.9049  132.8690   -0.3577 C   0  0  0  0  0  0  0  0  0  0  0  0
   20.1803  133.0161    0.9571 C   0  0  0  0  0  0  0  0  0  0  0  0
   20.7505  132.8018    2.1941 C   0  0  0  0  0  0  0  0  0  0  0  0
   19.8611  133.1080    3.1594 N   0  0  0  0  0  0  0  0  0  0  0  0
   18.7631  133.5141    2.4888 C   0  0  0  0  0  0  0  0  0  0  0  0
   18.9264  133.4832    1.1503 N   0  0  0  0  0  0  0  0  0  0  0  0
   17.9004  133.8380    0.1671 C   0  0  0  0  0  0  0  0  0  0  0  0
   21.0063  134.6902   -3.5538 C   0  0  0  0  0  0  0  0  0  0  0  0
   19.7825  134.6123   -3.2639 O   0  0  0  0  0  0  0  0  0  0  0  0
   16.5226  138.9644   -0.3062 H   0  0  0  0  0  0  0  0  0  0  0  0
   14.9453  137.2278    0.3149 H   0  0  0  0  0  0  0  0  0  0  0  0
   16.0420  137.5510    1.4809 H   0  0  0  0  0  0  0  0  0  0  0  0
   15.6566  135.0282    0.8436 H   0  0  0  0  0  0  0  0  0  0  0  0
   18.8035  136.0908   -1.2217 H   0  0  0  0  0  0  0  0  0  0  0  0
   19.4601  136.1415    0.2726 H   0  0  0  0  0  0  0  0  0  0  0  0
   18.3672  138.0192    0.8234 H   0  0  0  0  0  0  0  0  0  0  0  0
   17.9587  140.2935   -2.5323 H   0  0  0  0  0  0  0  0  0  0  0  0
   18.0109  140.2923   -4.9197 H   0  0  0  0  0  0  0  0  0  0  0  0
   18.7363  139.3131   -7.0032 H   0  0  0  0  0  0  0  0  0  0  0  0
   19.9833  137.6672   -8.2010 H   0  0  0  0  0  0  0  0  0  0  0  0
   21.2431  136.0196   -7.0271 H   0  0  0  0  0  0  0  0  0  0  0  0
   20.5983  137.0934   -2.4528 H   0  0  0  0  0  0  0  0  0  0  0  0
   23.5475  135.9158   -4.3858 H   0  0  0  0  0  0  0  0  0  0  0  0
   23.0088  135.2745   -5.7877 H   0  0  0  0  0  0  0  0  0  0  0  0
   24.0071  133.7699   -3.8368 H   0  0  0  0  0  0  0  0  0  0  0  0
   22.9566  133.1789   -4.9386 H   0  0  0  0  0  0  0  0  0  0  0  0
   21.6478  132.7693   -3.1244 H   0  0  0  0  0  0  0  0  0  0  0  0
   23.1235  134.8750   -1.8866 H   0  0  0  0  0  0  0  0  0  0  0  0
   23.2499  133.2810   -1.5547 H   0  0  0  0  0  0  0  0  0  0  0  0
   20.9756  134.8590   -0.9646 H   0  0  0  0  0  0  0  0  0  0  0  0
   22.1397  134.4768    0.1150 H   0  0  0  0  0  0  0  0  0  0  0  0
   21.5631  132.1192   -0.2903 H   0  0  0  0  0  0  0  0  0  0  0  0
   20.2427  132.6674   -1.0793 H   0  0  0  0  0  0  0  0  0  0  0  0
   21.6808  132.4703    2.3509 H   0  0  0  0  0  0  0  0  0  0  0  0
   17.9182  133.8068    2.9365 H   0  0  0  0  0  0  0  0  0  0  0  0
   17.0718  133.3102    0.3535 H   0  0  0  0  0  0  0  0  0  0  0  0
   18.2356  133.6197   -0.7494 H   0  0  0  0  0  0  0  0  0  0  0  0
  1  2  3  0  0  0  0
  2  3  1  0  0  0  0
  3  4  1  0  0  0  0
  4  5  1  0  0  0  0
  5  6  2  0  0  0  0
  6  7  1  0  0  0  0
  7  8  1  0  0  0  0
  8  9  1  0  0  0  0
  9 10  1  0  0  0  0
 10 11  2  0  0  0  0
 11 12  1  0  0  0  0
 12 13  2  0  0  0  0
 13 14  1  0  0  0  0
 14 15  2  0  0  0  0
 15 16  1  0  0  0  0
 16 17  2  0  0  0  0
 17 18  1  0  0  0  0
 18 19  2  0  0  0  0
 17 20  1  0  0  0  0
 20 21  1  0  0  0  0
 21 22  1  0  0  0  0
 22 23  1  0  0  0  0
 23 24  1  0  0  0  0
 24 25  1  0  0  0  0
 25 26  1  0  0  0  0
 26 27  1  0  0  0  0
 27 28  2  0  0  0  0
 28 29  1  0  0  0  0
 29 30  2  0  0  0  0
 30 31  1  0  0  0  0
 31 32  1  0  0  0  0
 23 33  1  0  0  0  0
 33 34  2  0  0  0  0
  8  3  1  0  0  0  0
 19 10  1  0  0  0  0
 33 20  1  0  0  0  0
 32  6  1  0  0  0  0
 18 13  1  0  0  0  0
 31 27  1  0  0  0  0
  3 35  1  0  0  0  0
  4 36  1  0  0  0  0
  4 37  1  0  0  0  0
  5 38  1  0  0  0  0
  7 39  1  0  0  0  0
  7 40  1  0  0  0  0
  8 41  1  0  0  0  0
 11 42  1  0  0  0  0
 12 43  1  0  0  0  0
 14 44  1  0  0  0  0
 15 45  1  0  0  0  0
 16 46  1  0  0  0  0
 19 47  1  0  0  0  0
 21 48  1  0  0  0  0
 21 49  1  0  0  0  0
 22 50  1  0  0  0  0
 22 51  1  0  0  0  0
 23 52  1  0  0  0  0
 24 53  1  0  0  0  0
 24 54  1  0  0  0  0
 25 55  1  0  0  0  0
 25 56  1  0  0  0  0
 26 57  1  0  0  0  0
 26 58  1  0  0  0  0
 28 59  1  0  0  0  0
 30 60  1  0  0  0  0
 32 61  1  0  0  0  0
 32 62  1  0  0  0  0
M  CHG  1  24   1
M  END
>  <docking-score>
-18.37

$$$$
1S63_778_1
foFlexX   03232113463D 1   1.00000     0.00000     0
FlexX 4.5.0 fol007
 50 53  0  0  0  0            999 V2000
   18.9351  133.2463    3.4471 N   0  0  0  0  0  0  0  0  0  0  0  0
   19.0031  133.2023    2.2929 C   0  0  0  0  0  0  0  0  0  0  0  0
   19.0864  133.1440    0.8573 C   0  0  0  0  0  0  0  0  0  0  0  0
   17.9369  132.8857    0.1172 C   0  0  0  0  0  0  0  0  0  0  0  0
   18.0022  132.8272   -1.2709 C   0  0  0  0  0  0  0  0  0  0  0  0
   19.2254  133.0290   -1.9017 C   0  0  0  0  0  0  0  0  0  0  0  0
   19.3112  132.9661   -3.4180 C   0  0  0  0  0  0  0  0  0  0  0  0
   20.3724  133.8393   -3.9276 N   0  0  0  0  0  0  0  0  0  0  0  0
   21.6971  133.7365   -3.6178 C   0  0  0  0  0  0  0  0  0  0  0  0
   22.3354  134.6869   -4.2644 N   0  0  0  0  0  0  0  0  0  0  0  0
   21.4328  135.4083   -4.9935 C   0  0  0  0  0  0  0  0  0  0  0  0
   20.1919  134.8802   -4.7862 C   0  0  0  0  0  0  0  0  0  0  0  0
   18.8837  135.3563   -5.3960 C   0  0  0  0  0  0  0  0  0  0  0  0
   18.8677  136.8160   -5.6767 N   0  3  2  0  0  0  0  0  0  0  0  0
   17.5126  137.3316   -5.3749 C   0  0  0  0  0  0  0  0  0  0  0  0
   16.7348  137.9589   -6.5266 C   0  0  0  0  0  0  0  0  0  0  0  0
   16.9975  137.3395   -7.8370 N   0  0  0  0  0  0  0  0  0  0  0  0
   15.9629  137.1980   -8.7701 C   0  0  0  0  0  0  0  0  0  0  0  0
   16.0803  137.8016  -10.0180 C   0  0  0  0  0  0  0  0  0  0  0  0
   15.0503  137.6564  -10.9416 C   0  0  0  0  0  0  0  0  0  0  0  0
   13.9130  136.9189  -10.6306 C   0  0  0  0  0  0  0  0  0  0  0  0
   13.8163  136.3233   -9.3770 C   0  0  0  0  0  0  0  0  0  0  0  0
   12.3692  135.3750   -8.9597 Cl  0  0  0  0  0  0  0  0  0  0  0  0
   14.8343  136.4557   -8.4384 C   0  0  0  0  0  0  0  0  0  0  0  0
   18.2961  136.8902   -8.1176 C   0  0  0  0  0  0  0  0  0  0  0  0
   18.5628  136.3752   -9.1932 O   0  0  0  0  0  0  0  0  0  0  0  0
   19.3690  137.0525   -7.0416 C   0  0  0  0  0  0  0  0  0  0  0  0
   20.3768  133.2867   -1.1649 C   0  0  0  0  0  0  0  0  0  0  0  0
   20.3083  133.3452    0.2235 C   0  0  0  0  0  0  0  0  0  0  0  0
   17.0638  132.7422    0.5832 H   0  0  0  0  0  0  0  0  0  0  0  0
   17.1797  132.6424   -1.8088 H   0  0  0  0  0  0  0  0  0  0  0  0
   18.4363  133.2559   -3.8061 H   0  0  0  0  0  0  0  0  0  0  0  0
   19.5031  132.0245   -3.6947 H   0  0  0  0  0  0  0  0  0  0  0  0
   22.1090  133.0593   -3.0080 H   0  0  0  0  0  0  0  0  0  0  0  0
   21.6454  136.1902   -5.5795 H   0  0  0  0  0  0  0  0  0  0  0  0
   18.1412  135.1465   -4.7598 H   0  0  0  0  0  0  0  0  0  0  0  0
   18.7356  134.8655   -6.2546 H   0  0  0  0  0  0  0  0  0  0  0  0
   19.5049  137.2524   -5.0414 H   0  0  0  0  0  0  0  0  0  0  0  0
   17.6066  138.0260   -4.6615 H   0  0  0  0  0  0  0  0  0  0  0  0
   16.9702  136.5671   -5.0265 H   0  0  0  0  0  0  0  0  0  0  0  0
   15.7582  137.8741   -6.3291 H   0  0  0  0  0  0  0  0  0  0  0  0
   16.9810  138.9266   -6.5815 H   0  0  0  0  0  0  0  0  0  0  0  0
   16.8953  138.3333  -10.2483 H   0  0  0  0  0  0  0  0  0  0  0  0
   15.1285  138.0877  -11.8404 H   0  0  0  0  0  0  0  0  0  0  0  0
   13.1754  136.8181  -11.2983 H   0  0  0  0  0  0  0  0  0  0  0  0
   14.7561  136.0241   -7.5397 H   0  0  0  0  0  0  0  0  0  0  0  0
   20.1048  136.4010   -7.2266 H   0  0  0  0  0  0  0  0  0  0  0  0
   19.7287  137.9843   -7.0904 H   0  0  0  0  0  0  0  0  0  0  0  0
   21.2499  133.4294   -1.6311 H   0  0  0  0  0  0  0  0  0  0  0  0
   21.1308  133.5304    0.7614 H   0  0  0  0  0  0  0  0  0  0  0  0
  1  2  3  0  0  0  0
  2  3  1  0  0  0  0
  3  4  2  0  0  0  0
  4  5  1  0  0  0  0
  5  6  2  0  0  0  0
  6  7  1  0  0  0  0
  7  8  1  0  0  0  0
  8  9  1  0  0  0  0
  9 10  2  0  0  0  0
 10 11  1  0  0  0  0
 11 12  2  0  0  0  0
 12 13  1  0  0  0  0
 13 14  1  0  0  0  0
 14 15  1  0  0  0  0
 15 16  1  0  0  0  0
 16 17  1  0  0  0  0
 17 18  1  0  0  0  0
 18 19  2  0  0  0  0
 19 20  1  0  0  0  0
 20 21  2  0  0  0  0
 21 22  1  0  0  0  0
 22 23  1  0  0  0  0
 22 24  2  0  0  0  0
 17 25  1  0  0  0  0
 25 26  2  0  0  0  0
 25 27  1  0  0  0  0
  6 28  1  0  0  0  0
 28 29  2  0  0  0  0
 29  3  1  0  0  0  0
 12  8  1  0  0  0  0
 27 14  1  0  0  0  0
 24 18  1  0  0  0  0
  4 30  1  0  0  0  0
  5 31  1  0  0  0  0
  7 32  1  0  0  0  0
  7 33  1  0  0  0  0
  9 34  1  0  0  0  0
 11 35  1  0  0  0  0
 13 36  1  0  0  0  0
 13 37  1  0  0  0  0
 14 38  1  0  0  0  0
 15 39  1  0  0  0  0
 15 40  1  0  0  0  0
 16 41  1  0  0  0  0
 16 42  1  0  0  0  0
 19 43  1  0  0  0  0
 20 44  1  0  0  0  0
 21 45  1  0  0  0  0
 24 46  1  0  0  0  0
 27 47  1  0  0  0  0
 27 48  1  0  0  0  0
 28 49  1  0  0  0  0
 29 50  1  0  0  0  0
M  CHG  1  14   1
M  END
>  <docking-score>
-24.75

$$$$
1S63_778_2
foFlexX   03232113463D 1   1.00000     0.00000     0
FlexX 4.5.0 fol007
 50 53  0  0  0  0            999 V2000
   18.8537  130.2110    2.1038 N   0  0  0  0  0  0  0  0  0  0  0  0
   19.0767  131.1384    1.4485 C   0  0  0  0  0  0  0  0  0  0  0  0
   19.3728  132.3573    0.5901 C   0  0  0  0  0  0  0  0  0  0  0  0
   20.5857  132.4365   -0.0869 C   0  0  0  0  0  0  0  0  0  0  0  0
   20.8700  133.5455   -0.8766 C   0  0  0  0  0  0  0  0  0  0  0  0
   19.9299  134.5659   -0.9772 C   0  0  0  0  0  0  0  0  0  0  0  0
   20.2261  135.7742   -1.8285 C   0  0  0  0  0  0  0  0  0  0  0  0
   21.1065  135.4308   -2.9549 N   0  0  0  0  0  0  0  0  0  0  0  0
   22.3628  134.9098   -2.8456 C   0  0  0  0  0  0  0  0  0  0  0  0
   22.8320  134.7355   -4.0615 N   0  0  0  0  0  0  0  0  0  0  0  0
   21.8877  135.1407   -4.9619 C   0  0  0  0  0  0  0  0  0  0  0  0
   20.7962  135.5812   -4.2719 C   0  0  0  0  0  0  0  0  0  0  0  0
   19.5086  136.1180   -4.8555 C   0  0  0  0  0  0  0  0  0  0  0  0
   19.7064  137.3215   -5.6852 N   0  3  2  0  0  0  0  0  0  0  0  0
   18.5711  138.2561   -5.6158 C   0  0  0  0  0  0  0  0  0  0  0  0
   17.2800  137.5400   -5.9797 C   0  0  0  0  0  0  0  0  0  0  0  0
   17.4197  136.7980   -7.2461 N   0  0  0  0  0  0  0  0  0  0  0  0
   16.2737  136.3619   -7.9162 C   0  0  0  0  0  0  0  0  0  0  0  0
   15.7402  135.1126   -7.6162 C   0  0  0  0  0  0  0  0  0  0  0  0
   14.5983  134.6842   -8.2851 C   0  0  0  0  0  0  0  0  0  0  0  0
   13.9903  135.4876   -9.2437 C   0  0  0  0  0  0  0  0  0  0  0  0
   14.5402  136.7335   -9.5280 C   0  0  0  0  0  0  0  0  0  0  0  0
   13.7769  137.7769  -10.7511 Cl  0  0  0  0  0  0  0  0  0  0  0  0
   15.6815  137.1816   -8.8711 C   0  0  0  0  0  0  0  0  0  0  0  0
   18.6812  136.5058   -7.7864 C   0  0  0  0  0  0  0  0  0  0  0  0
   18.7872  135.8484   -8.8114 O   0  0  0  0  0  0  0  0  0  0  0  0
   19.9518  136.9926   -7.0982 C   0  0  0  0  0  0  0  0  0  0  0  0
   18.7166  134.4903   -0.3012 C   0  0  0  0  0  0  0  0  0  0  0  0
   18.4347  133.3794    0.4877 C   0  0  0  0  0  0  0  0  0  0  0  0
   21.2530  131.6961   -0.0057 H   0  0  0  0  0  0  0  0  0  0  0  0
   21.7397  133.6086   -1.3661 H   0  0  0  0  0  0  0  0  0  0  0  0
   20.6740  136.4681   -1.2646 H   0  0  0  0  0  0  0  0  0  0  0  0
   19.3666  136.1393   -2.1862 H   0  0  0  0  0  0  0  0  0  0  0  0
   22.8410  134.6983   -1.9932 H   0  0  0  0  0  0  0  0  0  0  0  0
   21.9807  135.1182   -5.9573 H   0  0  0  0  0  0  0  0  0  0  0  0
   18.8901  136.3478   -4.1040 H   0  0  0  0  0  0  0  0  0  0  0  0
   19.0946  135.4055   -5.4219 H   0  0  0  0  0  0  0  0  0  0  0  0
   20.5143  137.7990   -5.3399 H   0  0  0  0  0  0  0  0  0  0  0  0
   18.7232  139.0091   -6.2560 H   0  0  0  0  0  0  0  0  0  0  0  0
   18.4976  138.6183   -4.6866 H   0  0  0  0  0  0  0  0  0  0  0  0
   17.0464  136.8978   -5.2496 H   0  0  0  0  0  0  0  0  0  0  0  0
   16.5488  138.2152   -6.0763 H   0  0  0  0  0  0  0  0  0  0  0  0
   16.1723  134.5297   -6.9280 H   0  0  0  0  0  0  0  0  0  0  0  0
   14.2097  133.7872   -8.0741 H   0  0  0  0  0  0  0  0  0  0  0  0
   13.1697  135.1743   -9.7218 H   0  0  0  0  0  0  0  0  0  0  0  0
   16.0699  138.0787   -9.0820 H   0  0  0  0  0  0  0  0  0  0  0  0
   20.6449  136.2736   -7.1490 H   0  0  0  0  0  0  0  0  0  0  0  0
   20.2839  137.8098   -7.5693 H   0  0  0  0  0  0  0  0  0  0  0  0
   18.0498  135.2312   -0.3818 H   0  0  0  0  0  0  0  0  0  0  0  0
   17.5648  133.3162    0.9770 H   0  0  0  0  0  0  0  0  0  0  0  0
  1  2  3  0  0  0  0
  2  3  1  0  0  0  0
  3  4  2  0  0  0  0
  4  5  1  0  0  0  0
  5  6  2  0  0  0  0
  6  7  1  0  0  0  0
  7  8  1  0  0  0  0
  8  9  1  0  0  0  0
  9 10  2  0  0  0  0
 10 11  1  0  0  0  0
 11 12  2  0  0  0  0
 12 13  1  0  0  0  0
 13 14  1  0  0  0  0
 14 15  1  0  0  0  0
 15 16  1  0  0  0  0
 16 17  1  0  0  0  0
 17 18  1  0  0  0  0
 18 19  2  0  0  0  0
 19 20  1  0  0  0  0
 20 21  2  0  0  0  0
 21 22  1  0  0  0  0
 22 23  1  0  0  0  0
 22 24  2  0  0  0  0
 17 25  1  0  0  0  0
 25 26  2  0  0  0  0
 25 27  1  0  0  0  0
  6 28  1  0  0  0  0
 28 29  2  0  0  0  0
 29  3  1  0  0  0  0
 12  8  1  0  0  0  0
 27 14  1  0  0  0  0
 24 18  1  0  0  0  0
  4 30  1  0  0  0  0
  5 31  1  0  0  0  0
  7 32  1  0  0  0  0
  7 33  1  0  0  0  0
  9 34  1  0  0  0  0
 11 35  1  0  0  0  0
 13 36  1  0  0  0  0
 13 37  1  0  0  0  0
 14 38  1  0  0  0  0
 15 39  1  0  0  0  0
 15 40  1  0  0  0  0
 16 41  1  0  0  0  0
 16 42  1  0  0  0  0
 19 43  1  0  0  0  0
 20 44  1  0  0  0  0
 21 45  1  0  0  0  0
 24 46  1  0  0  0  0
 27 47  1  0  0  0  0
 27 48  1  0  0  0  0
 28 49  1  0  0  0  0
 29 50  1  0  0  0  0
M  CHG  1  14   1
M  END
>  <docking-score>
-24.18

$$$$
1S63_778_3
foFlexX   03232113463D 1   1.00000     0.00000     0
FlexX 4.5.0 fol007
 50 53  0  0  0  0            999 V2000
   23.6849  134.8804   -3.5673 N   0  0  0  0  0  0  0  0  0  0  0  0
   22.7153  135.3165   -4.0237 C   0  0  0  0  0  0  0  0  0  0  0  0
   21.5108  135.8623   -4.5917 C   0  0  0  0  0  0  0  0  0  0  0  0
   21.5553  136.4458   -5.8539 C   0  0  0  0  0  0  0  0  0  0  0  0
   20.3990  136.9767   -6.4156 C   0  0  0  0  0  0  0  0  0  0  0  0
   19.2074  136.9157   -5.7005 C   0  0  0  0  0  0  0  0  0  0  0  0
   17.9367  137.4935   -6.3020 C   0  0  0  0  0  0  0  0  0  0  0  0
   17.5968  136.8315   -7.5647 N   0  0  0  0  0  0  0  0  0  0  0  0
   18.3864  136.7983   -8.6770 C   0  0  0  0  0  0  0  0  0  0  0  0
   17.7486  136.1147   -9.6015 N   0  0  0  0  0  0  0  0  0  0  0  0
   16.5476  135.7027   -9.0968 C   0  0  0  0  0  0  0  0  0  0  0  0
   16.4440  136.1513   -7.8125 C   0  0  0  0  0  0  0  0  0  0  0  0
   15.2817  135.9286   -6.8588 C   0  0  0  0  0  0  0  0  0  0  0  0
   14.1768  135.1366   -7.4602 N   0  3  2  0  0  0  0  0  0  0  0  0
   13.0259  134.9829   -6.5553 C   0  0  0  0  0  0  0  0  0  0  0  0
   13.4766  134.3860   -5.2314 C   0  0  0  0  0  0  0  0  0  0  0  0
   14.2901  133.1743   -5.4413 N   0  0  0  0  0  0  0  0  0  0  0  0
   14.5113  132.3024   -4.3722 C   0  0  0  0  0  0  0  0  0  0  0  0
   15.8126  132.0667   -3.9403 C   0  0  0  0  0  0  0  0  0  0  0  0
   16.0270  131.1988   -2.8745 C   0  0  0  0  0  0  0  0  0  0  0  0
   14.9601  130.5698   -2.2420 C   0  0  0  0  0  0  0  0  0  0  0  0
   13.6669  130.8200   -2.6898 C   0  0  0  0  0  0  0  0  0  0  0  0
   12.2879  130.0252   -1.8935 Cl  0  0  0  0  0  0  0  0  0  0  0  0
   13.4298  131.6841   -3.7538 C   0  0  0  0  0  0  0  0  0  0  0  0
   14.8613  132.8851   -6.6898 C   0  0  0  0  0  0  0  0  0  0  0  0
   15.5737  131.9035   -6.8410 O   0  0  0  0  0  0  0  0  0  0  0  0
   14.6152  133.7982   -7.8859 C   0  0  0  0  0  0  0  0  0  0  0  0
   19.1593  136.3336   -4.4381 C   0  0  0  0  0  0  0  0  0  0  0  0
   20.3175  135.8028   -3.8789 C   0  0  0  0  0  0  0  0  0  0  0  0
   22.4186  136.4835   -6.3572 H   0  0  0  0  0  0  0  0  0  0  0  0
   20.4240  137.3972   -7.3226 H   0  0  0  0  0  0  0  0  0  0  0  0
   18.0713  138.4698   -6.4718 H   0  0  0  0  0  0  0  0  0  0  0  0
   17.1840  137.3683   -5.6556 H   0  0  0  0  0  0  0  0  0  0  0  0
   19.2887  137.2188   -8.7720 H   0  0  0  0  0  0  0  0  0  0  0  0
   15.8614  135.1641   -9.5856 H   0  0  0  0  0  0  0  0  0  0  0  0
   14.9211  136.8196   -6.5831 H   0  0  0  0  0  0  0  0  0  0  0  0
   15.6200  135.4421   -6.0532 H   0  0  0  0  0  0  0  0  0  0  0  0
   13.8606  135.6254   -8.2733 H   0  0  0  0  0  0  0  0  0  0  0  0
   12.3515  134.3778   -6.9782 H   0  0  0  0  0  0  0  0  0  0  0  0
   12.6131  135.8787   -6.3905 H   0  0  0  0  0  0  0  0  0  0  0  0
   14.0217  135.0631   -4.7371 H   0  0  0  0  0  0  0  0  0  0  0  0
   12.6703  134.1476   -4.6899 H   0  0  0  0  0  0  0  0  0  0  0  0
   16.5845  132.5156   -4.3905 H   0  0  0  0  0  0  0  0  0  0  0  0
   16.9599  131.0251   -2.5591 H   0  0  0  0  0  0  0  0  0  0  0  0
   15.1201  129.9466   -1.4764 H   0  0  0  0  0  0  0  0  0  0  0  0
   12.4968  131.8579   -4.0689 H   0  0  0  0  0  0  0  0  0  0  0  0
   15.4633  133.8849   -8.4087 H   0  0  0  0  0  0  0  0  0  0  0  0
   13.9072  133.3928   -8.4642 H   0  0  0  0  0  0  0  0  0  0  0  0
   18.2961  136.2968   -3.9346 H   0  0  0  0  0  0  0  0  0  0  0  0
   20.2925  135.3821   -2.9721 H   0  0  0  0  0  0  0  0  0  0  0  0
  1  2  3  0  0  0  0
  2  3  1  0  0  0  0
  3  4  2  0  0  0  0
  4  5  1  0  0  0  0
  5  6  2  0  0  0  0
  6  7  1  0  0  0  0
  7  8  1  0  0  0  0
  8  9  1  0  0  0  0
  9 10  2  0  0  0  0
 10 11  1  0  0  0  0
 11 12  2  0  0  0  0
 12 13  1  0  0  0  0
 13 14  1  0  0  0  0
 14 15  1  0  0  0  0
 15 16  1  0  0  0  0
 16 17  1  0  0  0  0
 17 18  1  0  0  0  0
 18 19  2  0  0  0  0
 19 20  1  0  0  0  0
 20 21  2  0  0  0  0
 21 22  1  0  0  0  0
 22 23  1  0  0  0  0
 22 24  2  0  0  0  0
 17 25  1  0  0  0  0
 25 26  2  0  0  0  0
 25 27  1  0  0  0  0
  6 28  1  0  0  0  0
 28 29  2  0  0  0  0
 29  3  1  0  0  0  0
 12  8  1  0  0  0  0
 27 14  1  0  0  0  0
 24 18  1  0  0  0  0
  4 30  1  0  0  0  0
  5 31  1  0  0  0  0
  7 32  1  0  0  0  0
  7 33  1  0  0  0  0
  9 34  1  0  0  0  0
 11 35  1  0  0  0  0
 13 36  1  0  0  0  0
 13 37  1  0  0  0  0
 14 38  1  0  0  0  0
 15 39  1  0  0  0  0
 15 40  1  0  0  0  0
 16 41  1  0  0  0  0
 16 42  1  0  0  0  0
 19 43  1  0  0  0  0
 20 44  1  0  0  0  0
 21 45  1  0  0  0  0
 24 46  1  0  0  0  0
 27 47  1  0  0  0  0
 27 48  1  0  0  0  0
 28 49  1  0  0  0  0
 29 50  1  0  0  0  0
M  CHG  1  14   1
M  END
>  <docking-score>
-23.61

$$$$
3E37_ED5_1
foFlexX   03232113463D 1   1.00000     0.00000     0
FlexX 4.5.0 fol007
 85 88  0  0  0  0            999 V2000
   21.9723  135.1633    0.2896 C   0  0  0  0  0  0  0  0  0  0  0  0
   21.5241  133.9716   -0.5406 C   0  0  0  0  0  0  0  0  0  0  0  0
   21.0463  132.8470    0.1245 C   0  0  0  0  0  0  0  0  0  0  0  0
   20.6302  131.7435   -0.6126 C   0  0  0  0  0  0  0  0  0  0  0  0
   20.6942  131.7713   -2.0018 C   0  0  0  0  0  0  0  0  0  0  0  0
   21.1719  132.8948   -2.6686 C   0  0  0  0  0  0  0  0  0  0  0  0
   21.5885  133.9987   -1.9309 C   0  0  0  0  0  0  0  0  0  0  0  0
   22.1946  135.4225   -2.7981 S   0  0  0  0  0  0  0  0  0  0  0  0
   23.0239  136.2403   -1.8483 O   0  0  0  0  0  0  0  0  0  0  0  0
   23.0826  134.9877   -3.9322 O   0  0  0  0  0  0  0  0  0  0  0  0
   20.8909  136.4125   -3.4205 N   0  0  0  0  0  0  0  0  0  0  0  0
   20.4558  137.4525   -2.4563 C   0  0  0  0  0  0  0  0  0  0  0  0
   19.7160  136.9132   -1.2162 C   0  0  0  0  0  0  0  0  0  0  0  0
   18.2629  136.8407   -1.4490 N   0  0  0  0  0  0  0  0  0  0  0  0
   17.4125  138.0389   -1.3438 C   0  0  0  0  0  0  0  0  0  0  0  0
   16.0511  137.7046   -0.7964 C   0  0  0  0  0  0  0  0  0  0  0  0
   14.8628  137.9017   -1.4364 C   0  0  0  0  0  0  0  0  0  0  0  0
   13.8821  137.4633   -0.5969 N   0  0  0  0  0  0  0  0  0  0  0  0
   14.4418  137.0182    0.5076 C   0  0  0  0  0  0  0  0  0  0  0  0
   15.7928  137.1469    0.4160 N   0  0  0  0  0  0  0  0  0  0  0  0
   16.7838  136.7661    1.4334 C   0  0  0  0  0  0  0  0  0  0  0  0
   17.6449  135.5636   -1.6879 C   0  0  0  0  0  0  0  0  0  0  0  0
   16.8926  135.3745   -2.8428 C   0  0  0  0  0  0  0  0  0  0  0  0
   16.2892  134.1452   -3.0860 C   0  0  0  0  0  0  0  0  0  0  0  0
   16.4495  133.1167   -2.1641 C   0  0  0  0  0  0  0  0  0  0  0  0
   15.7966  131.7679   -2.4185 C   0  0  0  0  0  0  0  0  0  0  0  0
   15.2995  130.7410   -2.6120 N   0  0  0  0  0  0  0  0  0  0  0  0
   17.2012  133.3007   -1.0080 C   0  0  0  0  0  0  0  0  0  0  0  0
   17.8027  134.5319   -0.7681 C   0  0  0  0  0  0  0  0  0  0  0  0
   19.8136  135.5481   -3.9521 C   0  0  0  0  0  0  0  0  0  0  0  0
   19.0433  136.1887   -5.0967 C   0  0  0  0  0  0  0  0  0  0  0  0
   20.0287  136.4767   -6.2196 C   0  0  0  0  0  0  0  0  0  0  0  0
   19.5243  137.6596   -7.0255 C   0  0  0  0  0  0  0  0  0  0  0  0
   18.0577  137.5492   -7.0233 N   0  0  0  0  0  0  0  0  0  0  0  0
   17.3042  137.1337   -8.1807 C   0  0  0  0  0  0  0  0  0  0  0  0
   17.8184  136.3409   -9.0156 O   0  0  0  0  0  0  0  0  0  0  0  0
   15.9991  137.6173   -8.3713 O   0  0  0  0  0  0  0  0  0  0  0  0
   15.1233  137.3032   -9.4642 C   0  0  0  0  0  0  0  0  0  0  0  0
   14.4529  135.9333   -9.2459 C   0  0  0  0  0  0  0  0  0  0  0  0
   15.8914  137.3266  -10.7996 C   0  0  0  0  0  0  0  0  0  0  0  0
   14.0357  138.3875   -9.4987 C   0  0  0  0  0  0  0  0  0  0  0  0
   17.4090  137.8863   -5.7533 C   0  0  0  0  0  0  0  0  0  0  0  0
   18.3359  137.4531   -4.6315 C   0  0  0  0  0  0  0  0  0  0  0  0
   22.2893  135.8921   -0.3174 H   0  0  0  0  0  0  0  0  0  0  0  0
   21.2044  135.4959    0.8371 H   0  0  0  0  0  0  0  0  0  0  0  0
   22.7182  134.8860    0.8953 H   0  0  0  0  0  0  0  0  0  0  0  0
   21.0024  132.8322    1.1234 H   0  0  0  0  0  0  0  0  0  0  0  0
   20.2851  130.9303   -0.1439 H   0  0  0  0  0  0  0  0  0  0  0  0
   20.3936  130.9751   -2.5269 H   0  0  0  0  0  0  0  0  0  0  0  0
   21.2155  132.9091   -3.6675 H   0  0  0  0  0  0  0  0  0  0  0  0
   19.8443  138.0835   -2.9337 H   0  0  0  0  0  0  0  0  0  0  0  0
   21.2673  137.9468   -2.1443 H   0  0  0  0  0  0  0  0  0  0  0  0
   19.8920  137.5211   -0.4420 H   0  0  0  0  0  0  0  0  0  0  0  0
   20.0582  135.9975   -1.0055 H   0  0  0  0  0  0  0  0  0  0  0  0
   17.3069  138.4428   -2.2525 H   0  0  0  0  0  0  0  0  0  0  0  0
   17.8543  138.6981   -0.7353 H   0  0  0  0  0  0  0  0  0  0  0  0
   14.7353  138.2931   -2.3478 H   0  0  0  0  0  0  0  0  0  0  0  0
   13.9498  136.6431    1.2933 H   0  0  0  0  0  0  0  0  0  0  0  0
   17.7022  136.9805    1.1008 H   0  0  0  0  0  0  0  0  0  0  0  0
   16.6078  137.2740    2.2767 H   0  0  0  0  0  0  0  0  0  0  0  0
   16.7155  135.7851    1.6147 H   0  0  0  0  0  0  0  0  0  0  0  0
   16.7858  136.1224   -3.4980 H   0  0  0  0  0  0  0  0  0  0  0  0
   15.7466  134.0028   -3.9138 H   0  0  0  0  0  0  0  0  0  0  0  0
   17.3084  132.5524   -0.3533 H   0  0  0  0  0  0  0  0  0  0  0  0
   18.3450  134.6743    0.0599 H   0  0  0  0  0  0  0  0  0  0  0  0
   19.1731  135.3462   -3.2112 H   0  0  0  0  0  0  0  0  0  0  0  0
   20.2221  134.6965   -4.2808 H   0  0  0  0  0  0  0  0  0  0  0  0
   18.3585  135.5394   -5.4275 H   0  0  0  0  0  0  0  0  0  0  0  0
   20.1056  135.6751   -6.8125 H   0  0  0  0  0  0  0  0  0  0  0  0
   20.9251  136.6922   -5.8324 H   0  0  0  0  0  0  0  0  0  0  0  0
   19.8095  138.5182   -6.5996 H   0  0  0  0  0  0  0  0  0  0  0  0
   19.8753  137.6187   -7.9610 H   0  0  0  0  0  0  0  0  0  0  0  0
   13.9203  135.9538   -8.3998 H   0  0  0  0  0  0  0  0  0  0  0  0
   13.8476  135.7319  -10.0160 H   0  0  0  0  0  0  0  0  0  0  0  0
   15.1557  135.2249   -9.1803 H   0  0  0  0  0  0  0  0  0  0  0  0
   16.6290  136.6520  -10.7717 H   0  0  0  0  0  0  0  0  0  0  0  0
   15.2658  137.1057  -11.5478 H   0  0  0  0  0  0  0  0  0  0  0  0
   16.2778  138.2372  -10.9460 H   0  0  0  0  0  0  0  0  0  0  0  0
   14.4613  139.2822   -9.6342 H   0  0  0  0  0  0  0  0  0  0  0  0
   13.4035  138.2017  -10.2508 H   0  0  0  0  0  0  0  0  0  0  0  0
   13.5344  138.3845   -8.6334 H   0  0  0  0  0  0  0  0  0  0  0  0
   16.5359  137.4046   -5.6786 H   0  0  0  0  0  0  0  0  0  0  0  0
   17.2511  138.8724   -5.7029 H   0  0  0  0  0  0  0  0  0  0  0  0
   19.0059  138.1714   -4.4437 H   0  0  0  0  0  0  0  0  0  0  0  0
   17.8076  137.2654   -3.8035 H   0  0  0  0  0  0  0  0  0  0  0  0
  1  2  1  0  0  0  0
  2  3  2  0  0  0  0
  3  4  1  0  0  0  0
  4  5  2  0  0  0  0
  5  6  1  0  0  0  0
  6  7  2  0  0  0  0
  7  8  1  0  0  0  0
  8  9  2  0  0  0  0
  8 10  2  0  0  0  0
  8 11  1  0  0  0  0
 11 12  1  0  0  0  0
 12 13  1  0  0  0  0
 13 14  1  0  0  0  0
 14 15  1  0  0  0  0
 15 16  1  0  0  0  0
 16 17  2  0  0  0  0
 17 18  1  0  0  0  0
 18 19  2  0  0  0  0
 19 20  1  0  0  0  0
 20 21  1  0  0  0  0
 14 22  1  0  0  0  0
 22 23  2  0  0  0  0
 23 24  1  0  0  0  0
 24 25  2  0  0  0  0
 25 26  1  0  0  0  0
 26 27  3  0  0  0  0
 25 28  1  0  0  0  0
 28 29  2  0  0  0  0
 11 30  1  0  0  0  0
 30 31  1  0  0  0  0
 31 32  1  0  0  0  0
 32 33  1  0  0  0  0
 33 34  1  0  0  0  0
 34 35  1  0  0  0  0
 35 36  2  0  0  0  0
 35 37  1  0  0  0  0
 37 38  1  0  0  0  0
 38 39  1  0  0  0  0
 38 40  1  0  0  0  0
 38 41  1  0  0  0  0
 34 42  1  0  0  0  0
 42 43  1  0  0  0  0
  7  2  1  0  0  0  0
 20 16  1  0  0  0  0
 29 22  1  0  0  0  0
 43 31  1  0  0  0  0
  1 44  1  0  0  0  0
  1 45  1  0  0  0  0
  1 46  1  0  0  0  0
  3 47  1  0  0  0  0
  4 48  1  0  0  0  0
  5 49  1  0  0  0  0
  6 50  1  0  0  0  0
 12 51  1  0  0  0  0
 12 52  1  0  0  0  0
 13 53  1  0  0  0  0
 13 54  1  0  0  0  0
 15 55  1  0  0  0  0
 15 56  1  0  0  0  0
 17 57  1  0  0  0  0
 19 58  1  0  0  0  0
 21 59  1  0  0  0  0
 21 60  1  0  0  0  0
 21 61  1  0  0  0  0
 23 62  1  0  0  0  0
 24 63  1  0  0  0  0
 28 64  1  0  0  0  0
 29 65  1  0  0  0  0
 30 66  1  0  0  0  0
 30 67  1  0  0  0  0
 31 68  1  0  0  0  0
 32 69  1  0  0  0  0
 32 70  1  0  0  0  0
 33 71  1  0  0  0  0
 33 72  1  0  0  0  0
 39 73  1  0  0  0  0
 39 74  1  0  0  0  0
 39 75  1  0  0  0  0
 40 76  1  0  0  0  0
 40 77  1  0  0  0  0
 40 78  1  0  0  0  0
 41 79  1  0  0  0  0
 41 80  1  0  0  0  0
 41 81  1  0  0  0  0
 42 82  1  0  0  0  0
 42 83  1  0  0  0  0
 43 84  1  0  0  0  0
 43 85  1  0  0  0  0
M  END
>  <docking-score>
-13.92

$$$$
3E37_ED5_2
foFlexX   03232113463D 1   1.00000     0.00000     0
FlexX 4.5.0 fol007
 85 88  0  0  0  0            999 V2000
   20.7569  132.8355   -4.1659 C   0  0  0  0  0  0  0  0  0  0  0  0
   20.9360  132.7699   -2.6579 C   0  0  0  0  0  0  0  0  0  0  0  0
   20.4466  131.6559   -1.9836 C   0  0  0  0  0  0  0  0  0  0  0  0
   20.5980  131.5722   -0.6037 C   0  0  0  0  0  0  0  0  0  0  0  0
   21.2340  132.5971    0.0892 C   0  0  0  0  0  0  0  0  0  0  0  0
   21.7239  133.7119   -0.5834 C   0  0  0  0  0  0  0  0  0  0  0  0
   21.5720  133.7955   -1.9640 C   0  0  0  0  0  0  0  0  0  0  0  0
   22.2030  135.2244   -2.8048 S   0  0  0  0  0  0  0  0  0  0  0  0
   23.0454  136.0104   -1.8398 O   0  0  0  0  0  0  0  0  0  0  0  0
   23.0843  134.7952   -3.9463 O   0  0  0  0  0  0  0  0  0  0  0  0
   20.9168  136.2476   -3.4096 N   0  0  0  0  0  0  0  0  0  0  0  0
   20.4988  137.2772   -2.4267 C   0  0  0  0  0  0  0  0  0  0  0  0
   19.7489  136.7280   -1.1971 C   0  0  0  0  0  0  0  0  0  0  0  0
   18.2950  136.6845   -1.4318 N   0  0  0  0  0  0  0  0  0  0  0  0
   17.4651  137.8949   -1.3052 C   0  0  0  0  0  0  0  0  0  0  0  0
   16.0977  137.5740   -0.7646 C   0  0  0  0  0  0  0  0  0  0  0  0
   14.9135  137.8029   -1.4014 C   0  0  0  0  0  0  0  0  0  0  0  0
   13.9247  137.3661   -0.5705 N   0  0  0  0  0  0  0  0  0  0  0  0
   14.4759  136.8914    0.5260 C   0  0  0  0  0  0  0  0  0  0  0  0
   15.8290  136.9987    0.4373 N   0  0  0  0  0  0  0  0  0  0  0  0
   16.8126  136.5826    1.4481 C   0  0  0  0  0  0  0  0  0  0  0  0
   17.6555  135.4228   -1.6943 C   0  0  0  0  0  0  0  0  0  0  0  0
   16.9010  135.2676   -2.8528 C   0  0  0  0  0  0  0  0  0  0  0  0
   16.2769  134.0535   -3.1187 C   0  0  0  0  0  0  0  0  0  0  0  0
   16.4189  133.0056   -2.2156 C   0  0  0  0  0  0  0  0  0  0  0  0
   15.7433  131.6731   -2.4949 C   0  0  0  0  0  0  0  0  0  0  0  0
   15.2290  130.6585   -2.7074 N   0  0  0  0  0  0  0  0  0  0  0  0
   17.1727  133.1557   -1.0560 C   0  0  0  0  0  0  0  0  0  0  0  0
   17.7950  134.3719   -0.7935 C   0  0  0  0  0  0  0  0  0  0  0  0
   19.8254  135.4115   -3.9573 C   0  0  0  0  0  0  0  0  0  0  0  0
   19.0669  136.0860   -5.0905 C   0  0  0  0  0  0  0  0  0  0  0  0
   20.0579  136.3777   -6.2075 C   0  0  0  0  0  0  0  0  0  0  0  0
   19.5744  137.5834   -6.9918 C   0  0  0  0  0  0  0  0  0  0  0  0
   18.1062  137.4980   -6.9924 N   0  0  0  0  0  0  0  0  0  0  0  0
   17.3466  137.1167   -8.1575 C   0  0  0  0  0  0  0  0  0  0  0  0
   17.8479  136.3306   -9.0065 O   0  0  0  0  0  0  0  0  0  0  0  0
   16.0500  137.6259   -8.3399 O   0  0  0  0  0  0  0  0  0  0  0  0
   15.1698  137.3467   -9.4386 C   0  0  0  0  0  0  0  0  0  0  0  0
   14.4761  135.9847   -9.2458 C   0  0  0  0  0  0  0  0  0  0  0  0
   15.9392  137.3814  -10.7731 C   0  0  0  0  0  0  0  0  0  0  0  0
   14.1010  138.4499   -9.4538 C   0  0  0  0  0  0  0  0  0  0  0  0
   17.4624  137.8229   -5.7167 C   0  0  0  0  0  0  0  0  0  0  0  0
   18.3809  137.3536   -4.6025 C   0  0  0  0  0  0  0  0  0  0  0  0
   21.1536  133.6857   -4.5120 H   0  0  0  0  0  0  0  0  0  0  0  0
   21.2171  132.0558   -4.5905 H   0  0  0  0  0  0  0  0  0  0  0  0
   19.7821  132.8082   -4.3873 H   0  0  0  0  0  0  0  0  0  0  0  0
   19.9901  130.9219   -2.4865 H   0  0  0  0  0  0  0  0  0  0  0  0
   20.2497  130.7756   -0.1097 H   0  0  0  0  0  0  0  0  0  0  0  0
   21.3403  132.5317    1.0814 H   0  0  0  0  0  0  0  0  0  0  0  0
   22.1804  134.4455   -0.0799 H   0  0  0  0  0  0  0  0  0  0  0  0
   19.8985  137.9271   -2.8929 H   0  0  0  0  0  0  0  0  0  0  0  0
   21.3183  137.7517   -2.1054 H   0  0  0  0  0  0  0  0  0  0  0  0
   19.9346  137.3186   -0.4118 H   0  0  0  0  0  0  0  0  0  0  0  0
   20.0753  135.8029   -1.0030 H   0  0  0  0  0  0  0  0  0  0  0  0
   17.3670  138.3171   -2.2063 H   0  0  0  0  0  0  0  0  0  0  0  0
   17.9175  138.5353   -0.6845 H   0  0  0  0  0  0  0  0  0  0  0  0
   14.7934  138.2130   -2.3055 H   0  0  0  0  0  0  0  0  0  0  0  0
   13.9770  136.5105    1.3044 H   0  0  0  0  0  0  0  0  0  0  0  0
   17.7348  136.7873    1.1198 H   0  0  0  0  0  0  0  0  0  0  0  0
   16.6446  137.0779    2.3004 H   0  0  0  0  0  0  0  0  0  0  0  0
   16.7274  135.5997    1.6113 H   0  0  0  0  0  0  0  0  0  0  0  0
   16.8074  136.0290   -3.4943 H   0  0  0  0  0  0  0  0  0  0  0  0
   15.7326  133.9354   -3.9492 H   0  0  0  0  0  0  0  0  0  0  0  0
   17.2667  132.3939   -0.4151 H   0  0  0  0  0  0  0  0  0  0  0  0
   18.3390  134.4899    0.0373 H   0  0  0  0  0  0  0  0  0  0  0  0
   19.1809  135.2071   -3.2206 H   0  0  0  0  0  0  0  0  0  0  0  0
   20.2196  134.5593   -4.3014 H   0  0  0  0  0  0  0  0  0  0  0  0
   18.3714  135.4546   -5.4334 H   0  0  0  0  0  0  0  0  0  0  0  0
   20.1217  135.5858   -6.8148 H   0  0  0  0  0  0  0  0  0  0  0  0
   20.9576  136.5707   -5.8160 H   0  0  0  0  0  0  0  0  0  0  0  0
   19.8739  138.4292   -6.5502 H   0  0  0  0  0  0  0  0  0  0  0  0
   19.9254  137.5537   -7.9278 H   0  0  0  0  0  0  0  0  0  0  0  0
   13.9433  135.9989   -8.3997 H   0  0  0  0  0  0  0  0  0  0  0  0
   13.8680  135.8078  -10.0197 H   0  0  0  0  0  0  0  0  0  0  0  0
   15.1667  135.2634   -9.1928 H   0  0  0  0  0  0  0  0  0  0  0  0
   16.6653  136.6939  -10.7572 H   0  0  0  0  0  0  0  0  0  0  0  0
   15.3106  137.1849  -11.5255 H   0  0  0  0  0  0  0  0  0  0  0  0
   16.3412  138.2878  -10.9026 H   0  0  0  0  0  0  0  0  0  0  0  0
   14.5418  139.3396   -9.5728 H   0  0  0  0  0  0  0  0  0  0  0  0
   13.4662  138.2886  -10.2095 H   0  0  0  0  0  0  0  0  0  0  0  0
   13.5990  138.4396   -8.5890 H   0  0  0  0  0  0  0  0  0  0  0  0
   16.5810  137.3549   -5.6512 H   0  0  0  0  0  0  0  0  0  0  0  0
   17.3212  138.8105   -5.6484 H   0  0  0  0  0  0  0  0  0  0  0  0
   19.0628  138.0568   -4.4014 H   0  0  0  0  0  0  0  0  0  0  0  0
   17.8487  137.1599   -3.7783 H   0  0  0  0  0  0  0  0  0  0  0  0
  1  2  1  0  0  0  0
  2  3  2  0  0  0  0
  3  4  1  0  0  0  0
  4  5  2  0  0  0  0
  5  6  1  0  0  0  0
  6  7  2  0  0  0  0
  7  8  1  0  0  0  0
  8  9  2  0  0  0  0
  8 10  2  0  0  0  0
  8 11  1  0  0  0  0
 11 12  1  0  0  0  0
 12 13  1  0  0  0  0
 13 14  1  0  0  0  0
 14 15  1  0  0  0  0
 15 16  1  0  0  0  0
 16 17  2  0  0  0  0
 17 18  1  0  0  0  0
 18 19  2  0  0  0  0
 19 20  1  0  0  0  0
 20 21  1  0  0  0  0
 14 22  1  0  0  0  0
 22 23  2  0  0  0  0
 23 24  1  0  0  0  0
 24 25  2  0  0  0  0
 25 26  1  0  0  0  0
 26 27  3  0  0  0  0
 25 28  1  0  0  0  0
 28 29  2  0  0  0  0
 11 30  1  0  0  0  0
 30 31  1  0  0  0  0
 31 32  1  0  0  0  0
 32 33  1  0  0  0  0
 33 34  1  0  0  0  0
 34 35  1  0  0  0  0
 35 36  2  0  0  0  0
 35 37  1  0  0  0  0
 37 38  1  0  0  0  0
 38 39  1  0  0  0  0
 38 40  1  0  0  0  0
 38 41  1  0  0  0  0
 34 42  1  0  0  0  0
 42 43  1  0  0  0  0
  7  2  1  0  0  0  0
 20 16  1  0  0  0  0
 29 22  1  0  0  0  0
 43 31  1  0  0  0  0
  1 44  1  0  0  0  0
  1 45  1  0  0  0  0
  1 46  1  0  0  0  0
  3 47  1  0  0  0  0
  4 48  1  0  0  0  0
  5 49  1  0  0  0  0
  6 50  1  0  0  0  0
 12 51  1  0  0  0  0
 12 52  1  0  0  0  0
 13 53  1  0  0  0  0
 13 54  1  0  0  0  0
 15 55  1  0  0  0  0
 15 56  1  0  0  0  0
 17 57  1  0  0  0  0
 19 58  1  0  0  0  0
 21 59  1  0  0  0  0
 21 60  1  0  0  0  0
 21 61  1  0  0  0  0
 23 62  1  0  0  0  0
 24 63  1  0  0  0  0
 28 64  1  0  0  0  0
 29 65  1  0  0  0  0
 30 66  1  0  0  0  0
 30 67  1  0  0  0  0
 31 68  1  0  0  0  0
 32 69  1  0  0  0  0
 32 70  1  0  0  0  0
 33 71  1  0  0  0  0
 33 72  1  0  0  0  0
 39 73  1  0  0  0  0
 39 74  1  0  0  0  0
 39 75  1  0  0  0  0
 40 76  1  0  0  0  0
 40 77  1  0  0  0  0
 40 78  1  0  0  0  0
 41 79  1  0  0  0  0
 41 80  1  0  0  0  0
 41 81  1  0  0  0  0
 42 82  1  0  0  0  0
 42 83  1  0  0  0  0
 43 84  1  0  0  0  0
 43 85  1  0  0  0  0
M  END
>  <docking-score>
-13.57

$$$$
3E37_ED5_3
foFlexX   03232113463D 1   1.00000     0.00000     0
FlexX 4.5.0 fol007
 85 88  0  0  0  0            999 V2000
   18.6237  136.0160   -2.9523 C   0  0  0  0  0  0  0  0  0  0  0  0
   19.7978  136.4823   -2.1070 C   0  0  0  0  0  0  0  0  0  0  0  0
   19.5695  137.4592   -1.1432 C   0  0  0  0  0  0  0  0  0  0  0  0
   20.6273  137.9027   -0.3570 C   0  0  0  0  0  0  0  0  0  0  0  0
   21.8994  137.3699   -0.5384 C   0  0  0  0  0  0  0  0  0  0  0  0
   22.1296  136.3931   -1.5018 C   0  0  0  0  0  0  0  0  0  0  0  0
   21.0710  135.9497   -2.2885 C   0  0  0  0  0  0  0  0  0  0  0  0
   21.3832  134.7036   -3.5118 S   0  0  0  0  0  0  0  0  0  0  0  0
   20.8134  135.1701   -4.8219 O   0  0  0  0  0  0  0  0  0  0  0  0
   22.8666  134.5249   -3.6890 O   0  0  0  0  0  0  0  0  0  0  0  0
   20.6549  133.1697   -3.0828 N   0  0  0  0  0  0  0  0  0  0  0  0
   19.1730  133.2312   -3.0557 C   0  0  0  0  0  0  0  0  0  0  0  0
   18.4747  132.4577   -4.1915 C   0  0  0  0  0  0  0  0  0  0  0  0
   17.1889  133.0804   -4.5518 N   0  0  0  0  0  0  0  0  0  0  0  0
   17.1330  134.2657   -5.4245 C   0  0  0  0  0  0  0  0  0  0  0  0
   16.2482  134.0318   -6.6193 C   0  0  0  0  0  0  0  0  0  0  0  0
   16.4206  133.0621   -7.5628 C   0  0  0  0  0  0  0  0  0  0  0  0
   15.4046  133.1975   -8.4618 N   0  0  0  0  0  0  0  0  0  0  0  0
   14.6437  134.2039   -8.0882 C   0  0  0  0  0  0  0  0  0  0  0  0
   15.1354  134.7433   -6.9404 N   0  0  0  0  0  0  0  0  0  0  0  0
   14.5787  135.8817   -6.1943 C   0  0  0  0  0  0  0  0  0  0  0  0
   16.0041  132.5987   -3.9819 C   0  0  0  0  0  0  0  0  0  0  0  0
   14.8035  133.2480   -4.2514 C   0  0  0  0  0  0  0  0  0  0  0  0
   13.6193  132.7805   -3.6915 C   0  0  0  0  0  0  0  0  0  0  0  0
   13.6545  131.6624   -2.8656 C   0  0  0  0  0  0  0  0  0  0  0  0
   12.4355  131.1681   -2.2812 C   0  0  0  0  0  0  0  0  0  0  0  0
   11.4556  130.7707   -1.8115 N   0  0  0  0  0  0  0  0  0  0  0  0
   14.8523  131.0094   -2.5935 C   0  0  0  0  0  0  0  0  0  0  0  0
   16.0348  131.4803   -3.1551 C   0  0  0  0  0  0  0  0  0  0  0  0
   21.2915  132.6368   -1.8576 C   0  0  0  0  0  0  0  0  0  0  0  0
   20.3583  132.6671   -0.6263 C   0  0  0  0  0  0  0  0  0  0  0  0
   21.1239  132.0973    0.5605 C   0  0  0  0  0  0  0  0  0  0  0  0
   20.3234  132.1626    1.8529 C   0  0  0  0  0  0  0  0  0  0  0  0
   19.6776  133.4734    2.0355 N   0  0  0  0  0  0  0  0  0  0  0  0
   19.5214  133.9590    3.3371 C   0  0  0  0  0  0  0  0  0  0  0  0
   19.3780  133.1536    4.2969 O   0  0  0  0  0  0  0  0  0  0  0  0
   19.5243  135.3449    3.5676 O   0  0  0  0  0  0  0  0  0  0  0  0
   19.8729  136.0059    4.7929 C   0  0  0  0  0  0  0  0  0  0  0  0
   21.4033  136.1013    4.9418 C   0  0  0  0  0  0  0  0  0  0  0  0
   19.2532  135.2751    5.9995 C   0  0  0  0  0  0  0  0  0  0  0  0
   19.2922  137.4263    4.7219 C   0  0  0  0  0  0  0  0  0  0  0  0
   19.1935  134.2992    0.9165 C   0  0  0  0  0  0  0  0  0  0  0  0
   20.0444  134.1276   -0.3345 C   0  0  0  0  0  0  0  0  0  0  0  0
   18.9340  135.3179   -3.5976 H   0  0  0  0  0  0  0  0  0  0  0  0
   17.9175  135.6305   -2.3583 H   0  0  0  0  0  0  0  0  0  0  0  0
   18.2471  136.7927   -3.4571 H   0  0  0  0  0  0  0  0  0  0  0  0
   18.6531  137.8390   -1.0169 H   0  0  0  0  0  0  0  0  0  0  0  0
   20.4736  138.6046    0.3385 H   0  0  0  0  0  0  0  0  0  0  0  0
   22.6565  137.6924    0.0298 H   0  0  0  0  0  0  0  0  0  0  0  0
   23.0462  136.0136   -1.6276 H   0  0  0  0  0  0  0  0  0  0  0  0
   18.8999  134.1911   -3.1191 H   0  0  0  0  0  0  0  0  0  0  0  0
   18.8615  132.8529   -2.1840 H   0  0  0  0  0  0  0  0  0  0  0  0
   18.3090  131.5181   -3.8918 H   0  0  0  0  0  0  0  0  0  0  0  0
   19.0699  132.4511   -4.9951 H   0  0  0  0  0  0  0  0  0  0  0  0
   18.0570  134.4792   -5.7417 H   0  0  0  0  0  0  0  0  0  0  0  0
   16.7736  135.0380   -4.9006 H   0  0  0  0  0  0  0  0  0  0  0  0
   17.1528  132.3815   -7.5900 H   0  0  0  0  0  0  0  0  0  0  0  0
   13.8295  134.5229   -8.5732 H   0  0  0  0  0  0  0  0  0  0  0  0
   15.1487  136.0663   -5.3936 H   0  0  0  0  0  0  0  0  0  0  0  0
   14.5602  136.6894   -6.7836 H   0  0  0  0  0  0  0  0  0  0  0  0
   13.6488  135.6636   -5.8983 H   0  0  0  0  0  0  0  0  0  0  0  0
   14.7921  134.0507   -4.8477 H   0  0  0  0  0  0  0  0  0  0  0  0
   12.7531  133.2430   -3.8806 H   0  0  0  0  0  0  0  0  0  0  0  0
   14.8634  130.2063   -1.9978 H   0  0  0  0  0  0  0  0  0  0  0  0
   16.9010  131.0180   -2.9656 H   0  0  0  0  0  0  0  0  0  0  0  0
   22.1024  133.1861   -1.6557 H   0  0  0  0  0  0  0  0  0  0  0  0
   21.5640  131.6897   -2.0269 H   0  0  0  0  0  0  0  0  0  0  0  0
   19.5214  132.1470   -0.7970 H   0  0  0  0  0  0  0  0  0  0  0  0
   21.9681  132.6200    0.6789 H   0  0  0  0  0  0  0  0  0  0  0  0
   21.3476  131.1416    0.3694 H   0  0  0  0  0  0  0  0  0  0  0  0
   19.6172  131.4549    1.8315 H   0  0  0  0  0  0  0  0  0  0  0  0
   20.9392  131.9960    2.6230 H   0  0  0  0  0  0  0  0  0  0  0  0
   21.7812  136.6203    4.1751 H   0  0  0  0  0  0  0  0  0  0  0  0
   21.6266  136.5639    5.7998 H   0  0  0  0  0  0  0  0  0  0  0  0
   21.7957  135.1815    4.9472 H   0  0  0  0  0  0  0  0  0  0  0  0
   19.5934  134.3353    6.0306 H   0  0  0  0  0  0  0  0  0  0  0  0
   19.5066  135.7494    6.8426 H   0  0  0  0  0  0  0  0  0  0  0  0
   18.2574  135.2663    5.9084 H   0  0  0  0  0  0  0  0  0  0  0  0
   18.2987  137.3755    4.6192 H   0  0  0  0  0  0  0  0  0  0  0  0
   19.5156  137.9202    5.5622 H   0  0  0  0  0  0  0  0  0  0  0  0
   19.6841  137.9079    3.9380 H   0  0  0  0  0  0  0  0  0  0  0  0
   19.2160  135.2602    1.1921 H   0  0  0  0  0  0  0  0  0  0  0  0
   18.2525  134.0351    0.7048 H   0  0  0  0  0  0  0  0  0  0  0  0
   19.5502  134.5120   -1.1143 H   0  0  0  0  0  0  0  0  0  0  0  0
   20.9044  134.6221   -0.2084 H   0  0  0  0  0  0  0  0  0  0  0  0
  1  2  1  0  0  0  0
  2  3  2  0  0  0  0
  3  4  1  0  0  0  0
  4  5  2  0  0  0  0
  5  6  1  0  0  0  0
  6  7  2  0  0  0  0
  7  8  1  0  0  0  0
  8  9  2  0  0  0  0
  8 10  2  0  0  0  0
  8 11  1  0  0  0  0
 11 12  1  0  0  0  0
 12 13  1  0  0  0  0
 13 14  1  0  0  0  0
 14 15  1  0  0  0  0
 15 16  1  0  0  0  0
 16 17  2  0  0  0  0
 17 18  1  0  0  0  0
 18 19  2  0  0  0  0
 19 20  1  0  0  0  0
 20 21  1  0  0  0  0
 14 22  1  0  0  0  0
 22 23  2  0  0  0  0
 23 24  1  0  0  0  0
 24 25  2  0  0  0  0
 25 26  1  0  0  0  0
 26 27  3  0  0  0  0
 25 28  1  0  0  0  0
 28 29  2  0  0  0  0
 11 30  1  0  0  0  0
 30 31  1  0  0  0  0
 31 32  1  0  0  0  0
 32 33  1  0  0  0  0
 33 34  1  0  0  0  0
 34 35  1  0  0  0  0
 35 36  2  0  0  0  0
 35 37  1  0  0  0  0
 37 38  1  0  0  0  0
 38 39  1  0  0  0  0
 38 40  1  0  0  0  0
 38 41  1  0  0  0  0
 34 42  1  0  0  0  0
 42 43  1  0  0  0  0
  7  2  1  0  0  0  0
 20 16  1  0  0  0  0
 29 22  1  0  0  0  0
 43 31  1  0  0  0  0
  1 44  1  0  0  0  0
  1 45  1  0  0  0  0
  1 46  1  0  0  0  0
  3 47  1  0  0  0  0
  4 48  1  0  0  0  0
  5 49  1  0  0  0  0
  6 50  1  0  0  0  0
 12 51  1  0  0  0  0
 12 52  1  0  0  0  0
 13 53  1  0  0  0  0
 13 54  1  0  0  0  0
 15 55  1  0  0  0  0
 15 56  1  0  0  0  0
 17 57  1  0  0  0  0
 19 58  1  0  0  0  0
 21 59  1  0  0  0  0
 21 60  1  0  0  0  0
 21 61  1  0  0  0  0
 23 62  1  0  0  0  0
 24 63  1  0  0  0  0
 28 64  1  0  0  0  0
 29 65  1  0  0  0  0
 30 66  1  0  0  0  0
 30 67  1  0  0  0  0
 31 68  1  0  0  0  0
 32 69  1  0  0  0  0
 32 70  1  0  0  0  0
 33 71  1  0  0  0  0
 33 72  1  0  0  0  0
 39 73  1  0  0  0  0
 39 74  1  0  0  0  0
 39 75  1  0  0  0  0
 40 76  1  0  0  0  0
 40 77  1  0  0  0  0
 40 78  1  0  0  0  0
 41 79  1  0  0  0  0
 41 80  1  0  0  0  0
 41 81  1  0  0  0  0
 42 82  1  0  0  0  0
 42 83  1  0  0  0  0
 43 84  1  0  0  0  0
 43 85  1  0  0  0  0
M  END
>  <docking-score>
-13.27

$$$$
2IEJ_FII_1
foFlexX   03232113463D 1   1.00000     0.00000     0
FlexX 4.5.0 fol007
 52 51  0  0  0  0            999 V2000
   13.9843  133.1510   -3.1397 C   0  0  0  0  0  0  0  0  0  0  0  0
   14.1941  134.6368   -3.3122 C   0  0  0  0  0  0  0  0  0  0  0  0
   13.6724  135.3221   -4.5487 C   0  0  0  0  0  0  0  0  0  0  0  0
   14.8540  135.3790   -2.3962 C   0  0  0  0  0  0  0  0  0  0  0  0
   15.4496  134.8346   -1.1193 C   0  0  0  0  0  0  0  0  0  0  0  0
   16.6847  135.6350   -0.6820 C   0  0  0  0  0  0  0  0  0  0  0  0
   17.6798  134.7780    0.0745 C   0  0  0  0  0  0  0  0  0  0  0  0
   17.7970  134.9374    1.5718 C   0  0  0  0  0  0  0  0  0  0  0  0
   18.4447  133.9011   -0.6133 C   0  0  0  0  0  0  0  0  0  0  0  0
   19.4756  132.9846    0.0038 C   0  0  0  0  0  0  0  0  0  0  0  0
   20.6353  132.6784   -0.9592 C   0  0  0  0  0  0  0  0  0  0  0  0
   21.3732  133.9327   -1.3861 C   0  0  0  0  0  0  0  0  0  0  0  0
   21.7515  134.9572   -0.3417 C   0  0  0  0  0  0  0  0  0  0  0  0
   21.6902  134.0991   -2.6895 C   0  0  0  0  0  0  0  0  0  0  0  0
   22.4190  135.2971   -3.2332 C   0  0  0  0  0  0  0  0  0  0  0  0
   22.0110  135.5247   -4.5638 O   0  0  0  0  0  0  0  0  0  0  0  0
   21.7828  136.8578   -4.6986 N   0  0  0  0  0  0  0  0  0  0  0  0
   20.6702  137.3398   -5.4609 C   0  0  0  0  0  0  0  0  0  0  0  0
   20.4834  138.5811   -5.5686 O   0  0  0  0  0  0  0  0  0  0  0  0
   19.7494  136.3912   -6.1701 C   0  0  0  0  0  0  0  0  0  0  0  0
   19.1068  137.1513   -7.6919 P   0  0  0  0  0  0  0  0  0  0  0  0
   17.8191  137.8831   -7.3898 O   0  0  0  0  0  0  0  0  0  0  0  0
   20.2375  138.2417   -8.3180 O   0  5  0  0  0  0  0  0  0  0  0  0
   18.8071  135.9405   -8.8332 O   0  5  0  0  0  0  0  0  0  0  0  0
   14.3994  132.8533   -2.2801 H   0  0  0  0  0  0  0  0  0  0  0  0
   13.0043  132.9524   -3.1231 H   0  0  0  0  0  0  0  0  0  0  0  0
   14.4103  132.6635   -3.9019 H   0  0  0  0  0  0  0  0  0  0  0  0
   13.9041  136.2942   -4.5139 H   0  0  0  0  0  0  0  0  0  0  0  0
   14.0881  134.9092   -5.3591 H   0  0  0  0  0  0  0  0  0  0  0  0
   12.6789  135.2176   -4.5937 H   0  0  0  0  0  0  0  0  0  0  0  0
   14.9553  136.3574   -2.5762 H   0  0  0  0  0  0  0  0  0  0  0  0
   15.7161  133.8820   -1.2664 H   0  0  0  0  0  0  0  0  0  0  0  0
   14.7610  134.8800   -0.3955 H   0  0  0  0  0  0  0  0  0  0  0  0
   16.3900  136.3855   -0.0904 H   0  0  0  0  0  0  0  0  0  0  0  0
   17.1322  136.0075   -1.4950 H   0  0  0  0  0  0  0  0  0  0  0  0
   18.4972  134.3138    1.9196 H   0  0  0  0  0  0  0  0  0  0  0  0
   18.0529  135.8797    1.7877 H   0  0  0  0  0  0  0  0  0  0  0  0
   16.9186  134.7242    1.9995 H   0  0  0  0  0  0  0  0  0  0  0  0
   18.3190  133.8554   -1.6043 H   0  0  0  0  0  0  0  0  0  0  0  0
   19.0316  132.1249    0.2562 H   0  0  0  0  0  0  0  0  0  0  0  0
   19.8452  133.4221    0.8236 H   0  0  0  0  0  0  0  0  0  0  0  0
   20.2676  132.2286   -1.7730 H   0  0  0  0  0  0  0  0  0  0  0  0
   21.2799  132.0656   -0.5021 H   0  0  0  0  0  0  0  0  0  0  0  0
   22.2398  135.7131   -0.7778 H   0  0  0  0  0  0  0  0  0  0  0  0
   20.9239  135.3051    0.0990 H   0  0  0  0  0  0  0  0  0  0  0  0
   22.3409  134.5315    0.3448 H   0  0  0  0  0  0  0  0  0  0  0  0
   21.4236  133.3810   -3.3323 H   0  0  0  0  0  0  0  0  0  0  0  0
   23.4043  135.1280   -3.2100 H   0  0  0  0  0  0  0  0  0  0  0  0
   22.2053  136.0996   -2.6762 H   0  0  0  0  0  0  0  0  0  0  0  0
   22.3999  137.5109   -4.2596 H   0  0  0  0  0  0  0  0  0  0  0  0
   18.9848  136.1619   -5.5679 H   0  0  0  0  0  0  0  0  0  0  0  0
   20.2509  135.5582   -6.4041 H   0  0  0  0  0  0  0  0  0  0  0  0
  1  2  1  0  0  0  0
  2  3  1  0  0  0  0
  2  4  2  0  0  0  0
  4  5  1  0  0  0  0
  5  6  1  0  0  0  0
  6  7  1  0  0  0  0
  7  8  1  0  0  0  0
  7  9  2  0  0  0  0
  9 10  1  0  0  0  0
 10 11  1  0  0  0  0
 11 12  1  0  0  0  0
 12 13  1  0  0  0  0
 12 14  2  0  0  0  0
 14 15  1  0  0  0  0
 15 16  1  0  0  0  0
 16 17  1  0  0  0  0
 17 18  1  0  0  0  0
 18 19  2  0  0  0  0
 18 20  1  0  0  0  0
 20 21  1  0  0  0  0
 21 22  2  0  0  0  0
 21 23  1  0  0  0  0
 21 24  1  0  0  0  0
  1 25  1  0  0  0  0
  1 26  1  0  0  0  0
  1 27  1  0  0  0  0
  3 28  1  0  0  0  0
  3 29  1  0  0  0  0
  3 30  1  0  0  0  0
  4 31  1  0  0  0  0
  5 32  1  0  0  0  0
  5 33  1  0  0  0  0
  6 34  1  0  0  0  0
  6 35  1  0  0  0  0
  8 36  1  0  0  0  0
  8 37  1  0  0  0  0
  8 38  1  0  0  0  0
  9 39  1  0  0  0  0
 10 40  1  0  0  0  0
 10 41  1  0  0  0  0
 11 42  1  0  0  0  0
 11 43  1  0  0  0  0
 13 44  1  0  0  0  0
 13 45  1  0  0  0  0
 13 46  1  0  0  0  0
 14 47  1  0  0  0  0
 15 48  1  0  0  0  0
 15 49  1  0  0  0  0
 17 50  1  0  0  0  0
 20 51  1  0  0  0  0
 20 52  1  0  0  0  0
M  CHG  2  23  -1  24  -1
M  END
>  <docking-score>
-16.19

$$$$
2IEJ_FII_2
foFlexX   03232113463D 1   1.00000     0.00000     0
FlexX 4.5.0 fol007
 52 51  0  0  0  0            999 V2000
   16.6218  136.6363    2.2558 C   0  0  0  0  0  0  0  0  0  0  0  0
   15.7624  136.6097    1.0140 C   0  0  0  0  0  0  0  0  0  0  0  0
   14.5888  137.5483    0.9026 C   0  0  0  0  0  0  0  0  0  0  0  0
   16.0001  135.7543   -0.0045 C   0  0  0  0  0  0  0  0  0  0  0  0
   17.1228  134.7442   -0.0317 C   0  0  0  0  0  0  0  0  0  0  0  0
   17.6028  134.4666   -1.4636 C   0  0  0  0  0  0  0  0  0  0  0  0
   16.8427  133.3243   -2.1072 C   0  0  0  0  0  0  0  0  0  0  0  0
   17.5248  131.9863   -2.2667 C   0  0  0  0  0  0  0  0  0  0  0  0
   15.5773  133.5370   -2.5321 C   0  0  0  0  0  0  0  0  0  0  0  0
   14.7005  132.4967   -3.1897 C   0  0  0  0  0  0  0  0  0  0  0  0
   13.7009  133.1177   -4.1803 C   0  0  0  0  0  0  0  0  0  0  0  0
   14.3943  133.8685   -5.3008 C   0  0  0  0  0  0  0  0  0  0  0  0
   14.7178  135.3332   -5.1171 C   0  0  0  0  0  0  0  0  0  0  0  0
   14.7218  133.2071   -6.4332 C   0  0  0  0  0  0  0  0  0  0  0  0
   15.4097  133.8413   -7.6106 C   0  0  0  0  0  0  0  0  0  0  0  0
   16.8061  133.7260   -7.4502 O   0  0  0  0  0  0  0  0  0  0  0  0
   17.3906  134.3086   -8.5302 N   0  0  0  0  0  0  0  0  0  0  0  0
   18.1058  135.5429   -8.4024 C   0  0  0  0  0  0  0  0  0  0  0  0
   18.6375  136.0599   -9.4210 O   0  0  0  0  0  0  0  0  0  0  0  0
   18.1941  136.2528   -7.0837 C   0  0  0  0  0  0  0  0  0  0  0  0
   19.7233  137.2326   -6.9933 P   0  0  0  0  0  0  0  0  0  0  0  0
   20.8322  136.3909   -6.4044 O   0  0  0  0  0  0  0  0  0  0  0  0
   20.1731  137.7501   -8.5393 O   0  5  0  0  0  0  0  0  0  0  0  0
   19.4610  138.5808   -6.0074 O   0  5  0  0  0  0  0  0  0  0  0  0
   17.3432  135.9483    2.1768 H   0  0  0  0  0  0  0  0  0  0  0  0
   17.0343  137.5417    2.3564 H   0  0  0  0  0  0  0  0  0  0  0  0
   16.0569  136.4365    3.0564 H   0  0  0  0  0  0  0  0  0  0  0  0
   14.1208  137.3949    0.0323 H   0  0  0  0  0  0  0  0  0  0  0  0
   13.9542  137.3794    1.6567 H   0  0  0  0  0  0  0  0  0  0  0  0
   14.9127  138.4935    0.9448 H   0  0  0  0  0  0  0  0  0  0  0  0
   15.3900  135.7927   -0.7958 H   0  0  0  0  0  0  0  0  0  0  0  0
   16.7991  133.8890    0.3730 H   0  0  0  0  0  0  0  0  0  0  0  0
   17.8896  135.0974    0.5043 H   0  0  0  0  0  0  0  0  0  0  0  0
   18.5749  134.2337   -1.4385 H   0  0  0  0  0  0  0  0  0  0  0  0
   17.4717  135.2916   -2.0134 H   0  0  0  0  0  0  0  0  0  0  0  0
   16.9007  131.3451   -2.7132 H   0  0  0  0  0  0  0  0  0  0  0  0
   18.3466  132.0956   -2.8259 H   0  0  0  0  0  0  0  0  0  0  0  0
   17.7788  131.6322   -1.3667 H   0  0  0  0  0  0  0  0  0  0  0  0
   15.1927  134.4508   -2.4015 H   0  0  0  0  0  0  0  0  0  0  0  0
   14.1903  132.0109   -2.4800 H   0  0  0  0  0  0  0  0  0  0  0  0
   15.2828  131.8506   -3.6831 H   0  0  0  0  0  0  0  0  0  0  0  0
   13.1094  133.7537   -3.6846 H   0  0  0  0  0  0  0  0  0  0  0  0
   13.1457  132.3871   -4.5778 H   0  0  0  0  0  0  0  0  0  0  0  0
   15.1816  135.6770   -5.9335 H   0  0  0  0  0  0  0  0  0  0  0  0
   13.8714  135.8460   -4.9736 H   0  0  0  0  0  0  0  0  0  0  0  0
   15.3144  135.4457   -4.3225 H   0  0  0  0  0  0  0  0  0  0  0  0
   14.4923  132.2355   -6.4917 H   0  0  0  0  0  0  0  0  0  0  0  0
   15.1580  134.8076   -7.6642 H   0  0  0  0  0  0  0  0  0  0  0  0
   15.1303  133.3769   -8.4510 H   0  0  0  0  0  0  0  0  0  0  0  0
   17.3203  133.8697   -9.4260 H   0  0  0  0  0  0  0  0  0  0  0  0
   18.1907  135.5783   -6.3455 H   0  0  0  0  0  0  0  0  0  0  0  0
   17.4066  136.8608   -6.9833 H   0  0  0  0  0  0  0  0  0  0  0  0
  1  2  1  0  0  0  0
  2  3  1  0  0  0  0
  2  4  2  0  0  0  0
  4  5  1  0  0  0  0
  5  6  1  0  0  0  0
  6  7  1  0  0  0  0
  7  8  1  0  0  0  0
  7  9  2  0  0  0  0
  9 10  1  0  0  0  0
 10 11  1  0  0  0  0
 11 12  1  0  0  0  0
 12 13  1  0  0  0  0
 12 14  2  0  0  0  0
 14 15  1  0  0  0  0
 15 16  1  0  0  0  0
 16 17  1  0  0  0  0
 17 18  1  0  0  0  0
 18 19  2  0  0  0  0
 18 20  1  0  0  0  0
 20 21  1  0  0  0  0
 21 22  2  0  0  0  0
 21 23  1  0  0  0  0
 21 24  1  0  0  0  0
  1 25  1  0  0  0  0
  1 26  1  0  0  0  0
  1 27  1  0  0  0  0
  3 28  1  0  0  0  0
  3 29  1  0  0  0  0
  3 30  1  0  0  0  0
  4 31  1  0  0  0  0
  5 32  1  0  0  0  0
  5 33  1  0  0  0  0
  6 34  1  0  0  0  0
  6 35  1  0  0  0  0
  8 36  1  0  0  0  0
  8 37  1  0  0  0  0
  8 38  1  0  0  0  0
  9 39  1  0  0  0  0
 10 40  1  0  0  0  0
 10 41  1  0  0  0  0
 11 42  1  0  0  0  0
 11 43  1  0  0  0  0
 13 44  1  0  0  0  0
 13 45  1  0  0  0  0
 13 46  1  0  0  0  0
 14 47  1  0  0  0  0
 15 48  1  0  0  0  0
 15 49  1  0  0  0  0
 17 50  1  0  0  0  0
 20 51  1  0  0  0  0
 20 52  1  0  0  0  0
M  CHG  2  23  -1  24  -1
M  END
>  <docking-score>
-16.06

$$$$
2IEJ_FII_3
foFlexX   03232113463D 1   1.00000     0.00000     0
FlexX 4.5.0 fol007
 52 51  0  0  0  0            999 V2000
   16.8189  136.3901    1.5639 C   0  0  0  0  0  0  0  0  0  0  0  0
   15.4116  136.6348    1.0729 C   0  0  0  0  0  0  0  0  0  0  0  0
   14.3841  137.2041    2.0168 C   0  0  0  0  0  0  0  0  0  0  0  0
   15.0320  136.3431   -0.1905 C   0  0  0  0  0  0  0  0  0  0  0  0
   15.9392  135.7523   -1.2438 C   0  0  0  0  0  0  0  0  0  0  0  0
   15.5335  136.1958   -2.6567 C   0  0  0  0  0  0  0  0  0  0  0  0
   14.5344  135.2460   -3.2865 C   0  0  0  0  0  0  0  0  0  0  0  0
   13.6798  135.7333   -4.4325 C   0  0  0  0  0  0  0  0  0  0  0  0
   14.4267  133.9904   -2.7977 C   0  0  0  0  0  0  0  0  0  0  0  0
   13.4783  132.9375   -3.3225 C   0  0  0  0  0  0  0  0  0  0  0  0
   14.1087  132.0892   -4.4402 C   0  0  0  0  0  0  0  0  0  0  0  0
   15.1340  132.8671   -5.2423 C   0  0  0  0  0  0  0  0  0  0  0  0
   16.6033  132.5801   -5.0365 C   0  0  0  0  0  0  0  0  0  0  0  0
   14.7104  133.7893   -6.1352 C   0  0  0  0  0  0  0  0  0  0  0  0
   15.6287  134.6215   -6.9871 C   0  0  0  0  0  0  0  0  0  0  0  0
   16.8083  133.8937   -7.2468 O   0  0  0  0  0  0  0  0  0  0  0  0
   17.3736  134.4181   -8.3662 N   0  0  0  0  0  0  0  0  0  0  0  0
   18.1498  135.6202   -8.3036 C   0  0  0  0  0  0  0  0  0  0  0  0
   18.6619  136.0833   -9.3576 O   0  0  0  0  0  0  0  0  0  0  0  0
   18.3256  136.3611   -7.0110 C   0  0  0  0  0  0  0  0  0  0  0  0
   19.9008  137.2696   -7.0112 P   0  0  0  0  0  0  0  0  0  0  0  0
   20.9932  136.3929   -6.4428 O   0  0  0  0  0  0  0  0  0  0  0  0
   20.3092  137.7225   -8.5885 O   0  5  0  0  0  0  0  0  0  0  0  0
   19.7422  138.6553   -6.0556 O   0  5  0  0  0  0  0  0  0  0  0  0
   17.3671  136.0004    0.8239 H   0  0  0  0  0  0  0  0  0  0  0  0
   17.2242  137.2555    1.8588 H   0  0  0  0  0  0  0  0  0  0  0  0
   16.7972  135.7526    2.3340 H   0  0  0  0  0  0  0  0  0  0  0  0
   13.5080  137.2913    1.5426 H   0  0  0  0  0  0  0  0  0  0  0  0
   14.2787  136.5942    2.8022 H   0  0  0  0  0  0  0  0  0  0  0  0
   14.6836  138.1046    2.3319 H   0  0  0  0  0  0  0  0  0  0  0  0
   14.0838  136.5317   -0.4462 H   0  0  0  0  0  0  0  0  0  0  0  0
   15.8906  134.7549   -1.1908 H   0  0  0  0  0  0  0  0  0  0  0  0
   16.8774  136.0502   -1.0675 H   0  0  0  0  0  0  0  0  0  0  0  0
   16.3514  136.2310   -3.2311 H   0  0  0  0  0  0  0  0  0  0  0  0
   15.1238  137.1065   -2.6038 H   0  0  0  0  0  0  0  0  0  0  0  0
   13.0702  134.9984   -4.7296 H   0  0  0  0  0  0  0  0  0  0  0  0
   13.1358  136.5171   -4.1329 H   0  0  0  0  0  0  0  0  0  0  0  0
   14.2677  136.0070   -5.1938 H   0  0  0  0  0  0  0  0  0  0  0  0
   15.0188  133.7395   -2.0318 H   0  0  0  0  0  0  0  0  0  0  0  0
   12.6629  133.3902   -3.6833 H   0  0  0  0  0  0  0  0  0  0  0  0
   13.2185  132.3342   -2.5685 H   0  0  0  0  0  0  0  0  0  0  0  0
   13.3846  131.7801   -5.0569 H   0  0  0  0  0  0  0  0  0  0  0  0
   14.5568  131.2958   -4.0282 H   0  0  0  0  0  0  0  0  0  0  0  0
   17.1448  133.1619   -5.6434 H   0  0  0  0  0  0  0  0  0  0  0  0
   16.8499  132.7692   -4.0860 H   0  0  0  0  0  0  0  0  0  0  0  0
   16.7875  131.6194   -5.2439 H   0  0  0  0  0  0  0  0  0  0  0  0
   13.7249  133.9266   -6.2356 H   0  0  0  0  0  0  0  0  0  0  0  0
   15.8571  135.4673   -6.5049 H   0  0  0  0  0  0  0  0  0  0  0  0
   15.1752  134.8423   -7.8506 H   0  0  0  0  0  0  0  0  0  0  0  0
   17.2460  133.9585   -9.2450 H   0  0  0  0  0  0  0  0  0  0  0  0
   18.3218  135.7080   -6.2537 H   0  0  0  0  0  0  0  0  0  0  0  0
   17.5718  137.0082   -6.8969 H   0  0  0  0  0  0  0  0  0  0  0  0
  1  2  1  0  0  0  0
  2  3  1  0  0  0  0
  2  4  2  0  0  0  0
  4  5  1  0  0  0  0
  5  6  1  0  0  0  0
  6  7  1  0  0  0  0
  7  8  1  0  0  0  0
  7  9  2  0  0  0  0
  9 10  1  0  0  0  0
 10 11  1  0  0  0  0
 11 12  1  0  0  0  0
 12 13  1  0  0  0  0
 12 14  2  0  0  0  0
 14 15  1  0  0  0  0
 15 16  1  0  0  0  0
 16 17  1  0  0  0  0
 17 18  1  0  0  0  0
 18 19  2  0  0  0  0
 18 20  1  0  0  0  0
 20 21  1  0  0  0  0
 21 22  2  0  0  0  0
 21 23  1  0  0  0  0
 21 24  1  0  0  0  0
  1 25  1  0  0  0  0
  1 26  1  0  0  0  0
  1 27  1  0  0  0  0
  3 28  1  0  0  0  0
  3 29  1  0  0  0  0
  3 30  1  0  0  0  0
  4 31  1  0  0  0  0
  5 32  1  0  0  0  0
  5 33  1  0  0  0  0
  6 34  1  0  0  0  0
  6 35  1  0  0  0  0
  8 36  1  0  0  0  0
  8 37  1  0  0  0  0
  8 38  1  0  0  0  0
  9 39  1  0  0  0  0
 10 40  1  0  0  0  0
 10 41  1  0  0  0  0
 11 42  1  0  0  0  0
 11 43  1  0  0  0  0
 13 44  1  0  0  0  0
 13 45  1  0  0  0  0
 13 46  1  0  0  0  0
 14 47  1  0  0  0  0
 15 48  1  0  0  0  0
 15 49  1  0  0  0  0
 17 50  1  0  0  0  0
 20 51  1  0  0  0  0
 20 52  1  0  0  0  0
M  CHG  2  23  -1  24  -1
M  END
>  <docking-score>
-15.97

$$$$
2IEJ_S48_1
foFlexX   03232113463D 1   1.00000     0.00000     0
FlexX 4.5.0 fol007
 68 72  0  0  0  0            999 V2000
   15.7859  136.0793  -10.0233 C   0  0  0  0  0  0  0  0  0  0  0  0
   16.2628  136.3238   -8.7059 O   0  0  0  0  0  0  0  0  0  0  0  0
   17.6195  136.2667   -8.3744 C   0  0  0  0  0  0  0  0  0  0  0  0
   18.5051  136.3668   -9.2679 O   0  0  0  0  0  0  0  0  0  0  0  0
   18.0230  136.1240   -6.9389 C   0  0  0  0  0  0  0  0  0  0  0  0
   18.1499  137.4551   -6.2978 N   0  0  0  0  0  0  0  0  0  0  0  0
   17.3153  137.6032   -5.0631 C   0  0  2  0  0  0  0  0  0  0  0  0
   17.6849  136.4780   -4.1102 C   0  0  0  0  0  0  0  0  0  0  0  0
   16.7607  136.6353   -2.9164 C   0  0  0  0  0  0  0  0  0  0  0  0
   17.2659  136.5271   -1.6259 C   0  0  0  0  0  0  0  0  0  0  0  0
   16.3977  136.7158   -0.5541 C   0  0  0  0  0  0  0  0  0  0  0  0
   16.9241  136.6472    0.7955 C   0  0  0  0  0  0  0  0  0  0  0  0
   18.2780  136.3957    0.9897 C   0  0  0  0  0  0  0  0  0  0  0  0
   18.7762  136.3308    2.2866 C   0  0  0  0  0  0  0  0  0  0  0  0
   17.9317  136.5152    3.3755 C   0  0  0  0  0  0  0  0  0  0  0  0
   16.5784  136.7660    3.1717 C   0  0  0  0  0  0  0  0  0  0  0  0
   16.0708  136.8328    1.8785 C   0  0  0  0  0  0  0  0  0  0  0  0
   15.0476  136.9781   -0.7605 C   0  0  0  0  0  0  0  0  0  0  0  0
   14.5735  137.0582   -2.0664 C   0  0  0  0  0  0  0  0  0  0  0  0
   15.4143  136.8877   -3.1608 C   0  0  0  0  0  0  0  0  0  0  0  0
   14.9653  136.9776   -4.4920 N   0  0  0  0  0  0  0  0  0  0  0  0
   13.6440  136.4850   -4.9090 C   0  0  0  0  0  0  0  0  0  0  0  0
   13.5134  135.0121   -4.6366 C   0  0  0  0  0  0  0  0  0  0  0  0
   13.0355  134.4518   -3.4885 C   0  0  0  0  0  0  0  0  0  0  0  0
   13.0841  133.0996   -3.6564 N   0  0  0  0  0  0  0  0  0  0  0  0
   13.5697  132.8413   -4.8517 C   0  0  0  0  0  0  0  0  0  0  0  0
   13.8423  134.0093   -5.4933 N   0  0  0  0  0  0  0  0  0  0  0  0
   14.3947  134.1610   -6.8477 C   0  0  0  0  0  0  0  0  0  0  0  0
   15.8520  137.6130   -5.4808 C   0  0  0  0  0  0  0  0  0  0  0  0
   19.8597  137.7693   -5.9802 S   0  0  0  0  0  0  0  0  0  0  0  0
   20.6729  137.7107   -7.2439 O   0  0  0  0  0  0  0  0  0  0  0  0
   20.0007  139.1540   -5.4125 O   0  0  0  0  0  0  0  0  0  0  0  0
   20.5498  136.6158   -4.8458 C   0  0  0  0  0  0  0  0  0  0  0  0
   21.7915  136.0664   -4.9424 C   0  0  0  0  0  0  0  0  0  0  0  0
   21.9095  135.2409   -3.8691 N   0  0  0  0  0  0  0  0  0  0  0  0
   23.0841  134.4217   -3.5379 C   0  0  0  0  0  0  0  0  0  0  0  0
   20.7555  135.3031   -3.1502 C   0  0  0  0  0  0  0  0  0  0  0  0
   19.9245  136.1347   -3.7339 N   0  0  0  0  0  0  0  0  0  0  0  0
   16.0400  135.1535  -10.3033 H   0  0  0  0  0  0  0  0  0  0  0  0
   14.7903  136.1711  -10.0397 H   0  0  0  0  0  0  0  0  0  0  0  0
   16.1922  136.7413  -10.6531 H   0  0  0  0  0  0  0  0  0  0  0  0
   18.9025  135.6506   -6.8903 H   0  0  0  0  0  0  0  0  0  0  0  0
   17.3300  135.5905   -6.4542 H   0  0  0  0  0  0  0  0  0  0  0  0
   17.5329  138.4777   -4.6296 H   0  0  0  0  0  0  0  0  0  0  0  0
   17.5430  135.5897   -4.5470 H   0  0  0  0  0  0  0  0  0  0  0  0
   18.6400  136.5609   -3.8257 H   0  0  0  0  0  0  0  0  0  0  0  0
   18.2315  136.3183   -1.4709 H   0  0  0  0  0  0  0  0  0  0  0  0
   18.8857  136.2632    0.2066 H   0  0  0  0  0  0  0  0  0  0  0  0
   19.7483  136.1503    2.4368 H   0  0  0  0  0  0  0  0  0  0  0  0
   18.2969  136.4675    4.3052 H   0  0  0  0  0  0  0  0  0  0  0  0
   15.9709  136.8982    3.9549 H   0  0  0  0  0  0  0  0  0  0  0  0
   15.0987  137.0130    1.7282 H   0  0  0  0  0  0  0  0  0  0  0  0
   14.4292  137.1067    0.0148 H   0  0  0  0  0  0  0  0  0  0  0  0
   13.6031  137.2432   -2.2218 H   0  0  0  0  0  0  0  0  0  0  0  0
   13.5270  136.6489   -5.8885 H   0  0  0  0  0  0  0  0  0  0  0  0
   12.9358  136.9763   -4.4019 H   0  0  0  0  0  0  0  0  0  0  0  0
   12.7113  134.9398   -2.6781 H   0  0  0  0  0  0  0  0  0  0  0  0
   13.7159  131.9273   -5.2301 H   0  0  0  0  0  0  0  0  0  0  0  0
   14.4984  135.1330   -7.0585 H   0  0  0  0  0  0  0  0  0  0  0  0
   15.2871  133.7124   -6.8959 H   0  0  0  0  0  0  0  0  0  0  0  0
   13.7742  133.7407   -7.5098 H   0  0  0  0  0  0  0  0  0  0  0  0
   15.5625  138.5622   -5.6044 H   0  0  0  0  0  0  0  0  0  0  0  0
   15.7651  137.1225   -6.3479 H   0  0  0  0  0  0  0  0  0  0  0  0
   22.4737  136.2347   -5.6539 H   0  0  0  0  0  0  0  0  0  0  0  0
   22.9076  133.9109   -2.6965 H   0  0  0  0  0  0  0  0  0  0  0  0
   23.2653  133.7816   -4.2845 H   0  0  0  0  0  0  0  0  0  0  0  0
   23.8783  135.0151   -3.4073 H   0  0  0  0  0  0  0  0  0  0  0  0
   20.5699  134.7949   -2.3092 H   0  0  0  0  0  0  0  0  0  0  0  0
  1  2  1  0  0  0  0
  2  3  1  0  0  0  0
  3  4  2  0  0  0  0
  3  5  1  0  0  0  0
  5  6  1  0  0  0  0
  6  7  1  0  0  0  0
  7  8  1  0  0  0  0
  8  9  1  0  0  0  0
  9 10  2  0  0  0  0
 10 11  1  0  0  0  0
 11 12  1  0  0  0  0
 12 13  2  0  0  0  0
 13 14  1  0  0  0  0
 14 15  2  0  0  0  0
 15 16  1  0  0  0  0
 16 17  2  0  0  0  0
 11 18  2  0  0  0  0
 18 19  1  0  0  0  0
 19 20  2  0  0  0  0
 20 21  1  0  0  0  0
 21 22  1  0  0  0  0
 22 23  1  0  0  0  0
 23 24  2  0  0  0  0
 24 25  1  0  0  0  0
 25 26  2  0  0  0  0
 26 27  1  0  0  0  0
 27 28  1  0  0  0  0
 21 29  1  0  0  0  0
  6 30  1  0  0  0  0
 30 31  2  0  0  0  0
 30 32  2  0  0  0  0
 30 33  1  0  0  0  0
 33 34  2  0  0  0  0
 34 35  1  0  0  0  0
 35 36  1  0  0  0  0
 35 37  1  0  0  0  0
 37 38  2  0  0  0  0
 29  7  1  0  0  0  0
 38 33  1  0  0  0  0
 20  9  1  0  0  0  0
 27 23  1  0  0  0  0
 17 12  1  0  0  0  0
  1 39  1  0  0  0  0
  1 40  1  0  0  0  0
  1 41  1  0  0  0  0
  5 42  1  0  0  0  0
  5 43  1  0  0  0  0
  7 44  1  0  0  0  0
  8 45  1  0  0  0  0
  8 46  1  0  0  0  0
 10 47  1  0  0  0  0
 13 48  1  0  0  0  0
 14 49  1  0  0  0  0
 15 50  1  0  0  0  0
 16 51  1  0  0  0  0
 17 52  1  0  0  0  0
 18 53  1  0  0  0  0
 19 54  1  0  0  0  0
 22 55  1  0  0  0  0
 22 56  1  0  0  0  0
 24 57  1  0  0  0  0
 26 58  1  0  0  0  0
 28 59  1  0  0  0  0
 28 60  1  0  0  0  0
 28 61  1  0  0  0  0
 29 62  1  0  0  0  0
 29 63  1  0  0  0  0
 34 64  1  0  0  0  0
 36 65  1  0  0  0  0
 36 66  1  0  0  0  0
 36 67  1  0  0  0  0
 37 68  1  0  0  0  0
M  END
>  <docking-score>
-23.53

$$$$
2IEJ_S48_2
foFlexX   03232113463D 1   1.00000     0.00000     0
FlexX 4.5.0 fol007
 68 72  0  0  0  0            999 V2000
   15.7859  136.0793  -10.0233 C   0  0  0  0  0  0  0  0  0  0  0  0
   16.2628  136.3238   -8.7059 O   0  0  0  0  0  0  0  0  0  0  0  0
   17.6195  136.2667   -8.3744 C   0  0  0  0  0  0  0  0  0  0  0  0
   18.5051  136.3668   -9.2679 O   0  0  0  0  0  0  0  0  0  0  0  0
   18.0230  136.1240   -6.9389 C   0  0  0  0  0  0  0  0  0  0  0  0
   18.1499  137.4551   -6.2978 N   0  0  0  0  0  0  0  0  0  0  0  0
   17.3153  137.6032   -5.0631 C   0  0  2  0  0  0  0  0  0  0  0  0
   17.6849  136.4780   -4.1102 C   0  0  0  0  0  0  0  0  0  0  0  0
   16.7607  136.6353   -2.9164 C   0  0  0  0  0  0  0  0  0  0  0  0
   17.2659  136.5271   -1.6259 C   0  0  0  0  0  0  0  0  0  0  0  0
   16.3977  136.7158   -0.5541 C   0  0  0  0  0  0  0  0  0  0  0  0
   16.9241  136.6472    0.7955 C   0  0  0  0  0  0  0  0  0  0  0  0
   16.3272  137.3994    1.8014 C   0  0  0  0  0  0  0  0  0  0  0  0
   16.8372  137.3295    3.0935 C   0  0  0  0  0  0  0  0  0  0  0  0
   17.9298  136.5177    3.3764 C   0  0  0  0  0  0  0  0  0  0  0  0
   18.5208  135.7689    2.3636 C   0  0  0  0  0  0  0  0  0  0  0  0
   18.0180  135.8322    1.0683 C   0  0  0  0  0  0  0  0  0  0  0  0
   15.0476  136.9781   -0.7605 C   0  0  0  0  0  0  0  0  0  0  0  0
   14.5735  137.0582   -2.0664 C   0  0  0  0  0  0  0  0  0  0  0  0
   15.4143  136.8877   -3.1608 C   0  0  0  0  0  0  0  0  0  0  0  0
   14.9653  136.9776   -4.4920 N   0  0  0  0  0  0  0  0  0  0  0  0
   13.6440  136.4850   -4.9090 C   0  0  0  0  0  0  0  0  0  0  0  0
   13.5134  135.0121   -4.6366 C   0  0  0  0  0  0  0  0  0  0  0  0
   13.0355  134.4518   -3.4885 C   0  0  0  0  0  0  0  0  0  0  0  0
   13.0841  133.0996   -3.6564 N   0  0  0  0  0  0  0  0  0  0  0  0
   13.5697  132.8413   -4.8517 C   0  0  0  0  0  0  0  0  0  0  0  0
   13.8423  134.0093   -5.4933 N   0  0  0  0  0  0  0  0  0  0  0  0
   14.3947  134.1610   -6.8477 C   0  0  0  0  0  0  0  0  0  0  0  0
   15.8520  137.6130   -5.4808 C   0  0  0  0  0  0  0  0  0  0  0  0
   19.8597  137.7693   -5.9802 S   0  0  0  0  0  0  0  0  0  0  0  0
   20.6729  137.7107   -7.2439 O   0  0  0  0  0  0  0  0  0  0  0  0
   20.0007  139.1540   -5.4125 O   0  0  0  0  0  0  0  0  0  0  0  0
   20.5498  136.6158   -4.8458 C   0  0  0  0  0  0  0  0  0  0  0  0
   21.7915  136.0664   -4.9424 C   0  0  0  0  0  0  0  0  0  0  0  0
   21.9095  135.2409   -3.8691 N   0  0  0  0  0  0  0  0  0  0  0  0
   23.0841  134.4217   -3.5379 C   0  0  0  0  0  0  0  0  0  0  0  0
   20.7555  135.3031   -3.1502 C   0  0  0  0  0  0  0  0  0  0  0  0
   19.9245  136.1347   -3.7339 N   0  0  0  0  0  0  0  0  0  0  0  0
   16.0400  135.1535  -10.3033 H   0  0  0  0  0  0  0  0  0  0  0  0
   14.7903  136.1711  -10.0397 H   0  0  0  0  0  0  0  0  0  0  0  0
   16.1922  136.7413  -10.6531 H   0  0  0  0  0  0  0  0  0  0  0  0
   18.9025  135.6506   -6.8903 H   0  0  0  0  0  0  0  0  0  0  0  0
   17.3300  135.5905   -6.4542 H   0  0  0  0  0  0  0  0  0  0  0  0
   17.5329  138.4777   -4.6296 H   0  0  0  0  0  0  0  0  0  0  0  0
   17.5430  135.5897   -4.5470 H   0  0  0  0  0  0  0  0  0  0  0  0
   18.6400  136.5609   -3.8257 H   0  0  0  0  0  0  0  0  0  0  0  0
   18.2315  136.3183   -1.4709 H   0  0  0  0  0  0  0  0  0  0  0  0
   15.5411  137.9833    1.5983 H   0  0  0  0  0  0  0  0  0  0  0  0
   16.4151  137.8667    3.8238 H   0  0  0  0  0  0  0  0  0  0  0  0
   18.2909  136.4719    4.3078 H   0  0  0  0  0  0  0  0  0  0  0  0
   19.3070  135.1853    2.5669 H   0  0  0  0  0  0  0  0  0  0  0  0
   18.4401  135.2952    0.3378 H   0  0  0  0  0  0  0  0  0  0  0  0
   14.4292  137.1067    0.0148 H   0  0  0  0  0  0  0  0  0  0  0  0
   13.6031  137.2432   -2.2218 H   0  0  0  0  0  0  0  0  0  0  0  0
   13.5270  136.6489   -5.8885 H   0  0  0  0  0  0  0  0  0  0  0  0
   12.9358  136.9763   -4.4019 H   0  0  0  0  0  0  0  0  0  0  0  0
   12.7113  134.9398   -2.6781 H   0  0  0  0  0  0  0  0  0  0  0  0
   13.7159  131.9273   -5.2301 H   0  0  0  0  0  0  0  0  0  0  0  0
   14.4984  135.1330   -7.0585 H   0  0  0  0  0  0  0  0  0  0  0  0
   15.2871  133.7124   -6.8959 H   0  0  0  0  0  0  0  0  0  0  0  0
   13.7742  133.7407   -7.5098 H   0  0  0  0  0  0  0  0  0  0  0  0
   15.5625  138.5622   -5.6044 H   0  0  0  0  0  0  0  0  0  0  0  0
   15.7651  137.1225   -6.3479 H   0  0  0  0  0  0  0  0  0  0  0  0
   22.4737  136.2347   -5.6539 H   0  0  0  0  0  0  0  0  0  0  0  0
   22.9076  133.9109   -2.6965 H   0  0  0  0  0  0  0  0  0  0  0  0
   23.2653  133.7816   -4.2845 H   0  0  0  0  0  0  0  0  0  0  0  0
   23.8783  135.0151   -3.4073 H   0  0  0  0  0  0  0  0  0  0  0  0
   20.5699  134.7949   -2.3092 H   0  0  0  0  0  0  0  0  0  0  0  0
  1  2  1  0  0  0  0
  2  3  1  0  0  0  0
  3  4  2  0  0  0  0
  3  5  1  0  0  0  0
  5  6  1  0  0  0  0
  6  7  1  0  0  0  0
  7  8  1  0  0  0  0
  8  9  1  0  0  0  0
  9 10  2  0  0  0  0
 10 11  1  0  0  0  0
 11 12  1  0  0  0  0
 12 13  2  0  0  0  0
 13 14  1  0  0  0  0
 14 15  2  0  0  0  0
 15 16  1  0  0  0  0
 16 17  2  0  0  0  0
 11 18  2  0  0  0  0
 18 19  1  0  0  0  0
 19 20  2  0  0  0  0
 20 21  1  0  0  0  0
 21 22  1  0  0  0  0
 22 23  1  0  0  0  0
 23 24  2  0  0  0  0
 24 25  1  0  0  0  0
 25 26  2  0  0  0  0
 26 27  1  0  0  0  0
 27 28  1  0  0  0  0
 21 29  1  0  0  0  0
  6 30  1  0  0  0  0
 30 31  2  0  0  0  0
 30 32  2  0  0  0  0
 30 33  1  0  0  0  0
 33 34  2  0  0  0  0
 34 35  1  0  0  0  0
 35 36  1  0  0  0  0
 35 37  1  0  0  0  0
 37 38  2  0  0  0  0
 29  7  1  0  0  0  0
 38 33  1  0  0  0  0
 20  9  1  0  0  0  0
 27 23  1  0  0  0  0
 17 12  1  0  0  0  0
  1 39  1  0  0  0  0
  1 40  1  0  0  0  0
  1 41  1  0  0  0  0
  5 42  1  0  0  0  0
  5 43  1  0  0  0  0
  7 44  1  0  0  0  0
  8 45  1  0  0  0  0
  8 46  1  0  0  0  0
 10 47  1  0  0  0  0
 13 48  1  0  0  0  0
 14 49  1  0  0  0  0
 15 50  1  0  0  0  0
 16 51  1  0  0  0  0
 17 52  1  0  0  0  0
 18 53  1  0  0  0  0
 19 54  1  0  0  0  0
 22 55  1  0  0  0  0
 22 56  1  0  0  0  0
 24 57  1  0  0  0  0
 26 58  1  0  0  0  0
 28 59  1  0  0  0  0
 28 60  1  0  0  0  0
 28 61  1  0  0  0  0
 29 62  1  0  0  0  0
 29 63  1  0  0  0  0
 34 64  1  0  0  0  0
 36 65  1  0  0  0  0
 36 66  1  0  0  0  0
 36 67  1  0  0  0  0
 37 68  1  0  0  0  0
M  END
>  <docking-score>
-23.26

$$$$
2IEJ_S48_3
foFlexX   03232113463D 1   1.00000     0.00000     0
FlexX 4.5.0 fol007
 68 72  0  0  0  0            999 V2000
   15.7802  136.1522  -10.0151 C   0  0  0  0  0  0  0  0  0  0  0  0
   16.2857  136.4018   -8.7094 O   0  0  0  0  0  0  0  0  0  0  0  0
   17.6461  136.3155   -8.4005 C   0  0  0  0  0  0  0  0  0  0  0  0
   18.5183  136.3821   -9.3102 O   0  0  0  0  0  0  0  0  0  0  0  0
   18.0709  136.1814   -6.9703 C   0  0  0  0  0  0  0  0  0  0  0  0
   18.2415  137.5171   -6.3492 N   0  0  0  0  0  0  0  0  0  0  0  0
   17.4324  137.7018   -5.1026 C   0  0  2  0  0  0  0  0  0  0  0  0
   17.7907  136.5802   -4.1412 C   0  0  0  0  0  0  0  0  0  0  0  0
   16.8915  136.7757   -2.9340 C   0  0  0  0  0  0  0  0  0  0  0  0
   17.4163  136.6717   -1.6510 C   0  0  0  0  0  0  0  0  0  0  0  0
   16.5718  136.8957   -0.5671 C   0  0  0  0  0  0  0  0  0  0  0  0
   17.1196  136.8316    0.7741 C   0  0  0  0  0  0  0  0  0  0  0  0
   18.4701  136.5492    0.9485 C   0  0  0  0  0  0  0  0  0  0  0  0
   18.9891  136.4887    2.2375 C   0  0  0  0  0  0  0  0  0  0  0  0
   18.1684  136.7080    3.3381 C   0  0  0  0  0  0  0  0  0  0  0  0
   16.8183  136.9896    3.1541 C   0  0  0  0  0  0  0  0  0  0  0  0
   16.2901  137.0522    1.8689 C   0  0  0  0  0  0  0  0  0  0  0  0
   15.2251  137.1887   -0.7540 C   0  0  0  0  0  0  0  0  0  0  0  0
   14.7305  137.2636   -2.0525 C   0  0  0  0  0  0  0  0  0  0  0  0
   15.5478  137.0582   -3.1587 C   0  0  0  0  0  0  0  0  0  0  0  0
   15.0780  137.1419   -4.4832 N   0  0  0  0  0  0  0  0  0  0  0  0
   13.7380  136.6768   -4.8710 C   0  0  0  0  0  0  0  0  0  0  0  0
   13.8085  135.3149   -5.5041 C   0  0  0  0  0  0  0  0  0  0  0  0
   13.9796  135.0601   -6.8331 C   0  0  0  0  0  0  0  0  0  0  0  0
   13.9893  133.7047   -6.9797 N   0  0  0  0  0  0  0  0  0  0  0  0
   13.8309  133.1524   -5.7958 C   0  0  0  0  0  0  0  0  0  0  0  0
   13.7215  134.1255   -4.8517 N   0  0  0  0  0  0  0  0  0  0  0  0
   13.5356  133.9317   -3.4060 C   0  0  0  0  0  0  0  0  0  0  0  0
   15.9627  137.7424   -5.4954 C   0  0  0  0  0  0  0  0  0  0  0  0
   19.9638  137.7930   -6.0650 S   0  0  0  0  0  0  0  0  0  0  0  0
   20.7533  137.6979   -7.3415 O   0  0  0  0  0  0  0  0  0  0  0  0
   20.1485  139.1810   -5.5183 O   0  0  0  0  0  0  0  0  0  0  0  0
   20.6450  136.6376   -4.9272 C   0  0  0  0  0  0  0  0  0  0  0  0
   21.8709  136.0563   -5.0376 C   0  0  0  0  0  0  0  0  0  0  0  0
   21.9874  135.2422   -3.9556 N   0  0  0  0  0  0  0  0  0  0  0  0
   23.1470  134.3985   -3.6335 C   0  0  0  0  0  0  0  0  0  0  0  0
   20.8479  135.3422   -3.2180 C   0  0  0  0  0  0  0  0  0  0  0  0
   20.0275  136.1865   -3.7985 N   0  0  0  0  0  0  0  0  0  0  0  0
   16.0066  135.2168  -10.2870 H   0  0  0  0  0  0  0  0  0  0  0  0
   14.7870  136.2684  -10.0159 H   0  0  0  0  0  0  0  0  0  0  0  0
   16.1916  136.7957  -10.6605 H   0  0  0  0  0  0  0  0  0  0  0  0
   18.9393  135.6871   -6.9303 H   0  0  0  0  0  0  0  0  0  0  0  0
   17.3736  135.6715   -6.4667 H   0  0  0  0  0  0  0  0  0  0  0  0
   17.6789  138.5761   -4.6845 H   0  0  0  0  0  0  0  0  0  0  0  0
   17.6196  135.6901   -4.5636 H   0  0  0  0  0  0  0  0  0  0  0  0
   18.7524  136.6431   -3.8741 H   0  0  0  0  0  0  0  0  0  0  0  0
   18.3790  136.4412   -1.5097 H   0  0  0  0  0  0  0  0  0  0  0  0
   19.0607  136.3916    0.1571 H   0  0  0  0  0  0  0  0  0  0  0  0
   19.9588  136.2862    2.3735 H   0  0  0  0  0  0  0  0  0  0  0  0
   18.5484  136.6634    4.2620 H   0  0  0  0  0  0  0  0  0  0  0  0
   16.2279  137.1469    3.9456 H   0  0  0  0  0  0  0  0  0  0  0  0
   15.3203  137.2545    1.7328 H   0  0  0  0  0  0  0  0  0  0  0  0
   14.6236  137.3426    0.0299 H   0  0  0  0  0  0  0  0  0  0  0  0
   13.7624  137.4705   -2.1939 H   0  0  0  0  0  0  0  0  0  0  0  0
   13.3433  137.3223   -5.5249 H   0  0  0  0  0  0  0  0  0  0  0  0
   13.1587  136.6305   -4.0572 H   0  0  0  0  0  0  0  0  0  0  0  0
   14.0791  135.7383   -7.5612 H   0  0  0  0  0  0  0  0  0  0  0  0
   13.7963  132.1690   -5.6177 H   0  0  0  0  0  0  0  0  0  0  0  0
   13.4801  134.8224   -2.9547 H   0  0  0  0  0  0  0  0  0  0  0  0
   12.6902  133.4227   -3.2439 H   0  0  0  0  0  0  0  0  0  0  0  0
   14.3099  133.4183   -3.0362 H   0  0  0  0  0  0  0  0  0  0  0  0
   15.6945  138.6968   -5.6267 H   0  0  0  0  0  0  0  0  0  0  0  0
   15.8488  137.2430   -6.3542 H   0  0  0  0  0  0  0  0  0  0  0  0
   22.5446  136.1985   -5.7628 H   0  0  0  0  0  0  0  0  0  0  0  0
   22.9728  133.9031   -2.7824 H   0  0  0  0  0  0  0  0  0  0  0  0
   23.2996  133.7445   -4.3745 H   0  0  0  0  0  0  0  0  0  0  0  0
   23.9577  134.9737   -3.5244 H   0  0  0  0  0  0  0  0  0  0  0  0
   20.6645  134.8497   -2.3673 H   0  0  0  0  0  0  0  0  0  0  0  0
  1  2  1  0  0  0  0
  2  3  1  0  0  0  0
  3  4  2  0  0  0  0
  3  5  1  0  0  0  0
  5  6  1  0  0  0  0
  6  7  1  0  0  0  0
  7  8  1  0  0  0  0
  8  9  1  0  0  0  0
  9 10  2  0  0  0  0
 10 11  1  0  0  0  0
 11 12  1  0  0  0  0
 12 13  2  0  0  0  0
 13 14  1  0  0  0  0
 14 15  2  0  0  0  0
 15 16  1  0  0  0  0
 16 17  2  0  0  0  0
 11 18  2  0  0  0  0
 18 19  1  0  0  0  0
 19 20  2  0  0  0  0
 20 21  1  0  0  0  0
 21 22  1  0  0  0  0
 22 23  1  0  0  0  0
 23 24  2  0  0  0  0
 24 25  1  0  0  0  0
 25 26  2  0  0  0  0
 26 27  1  0  0  0  0
 27 28  1  0  0  0  0
 21 29  1  0  0  0  0
  6 30  1  0  0  0  0
 30 31  2  0  0  0  0
 30 32  2  0  0  0  0
 30 33  1  0  0  0  0
 33 34  2  0  0  0  0
 34 35  1  0  0  0  0
 35 36  1  0  0  0  0
 35 37  1  0  0  0  0
 37 38  2  0  0  0  0
 29  7  1  0  0  0  0
 38 33  1  0  0  0  0
 20  9  1  0  0  0  0
 27 23  1  0  0  0  0
 17 12  1  0  0  0  0
  1 39  1  0  0  0  0
  1 40  1  0  0  0  0
  1 41  1  0  0  0  0
  5 42  1  0  0  0  0
  5 43  1  0  0  0  0
  7 44  1  0  0  0  0
  8 45  1  0  0  0  0
  8 46  1  0  0  0  0
 10 47  1  0  0  0  0
 13 48  1  0  0  0  0
 14 49  1  0  0  0  0
 15 50  1  0  0  0  0
 16 51  1  0  0  0  0
 17 52  1  0  0  0  0
 18 53  1  0  0  0  0
 19 54  1  0  0  0  0
 22 55  1  0  0  0  0
 22 56  1  0  0  0  0
 24 57  1  0  0  0  0
 26 58  1  0  0  0  0
 28 59  1  0  0  0  0
 28 60  1  0  0  0  0
 28 61  1  0  0  0  0
 29 62  1  0  0  0  0
 29 63  1  0  0  0  0
 34 64  1  0  0  0  0
 36 65  1  0  0  0  0
 36 66  1  0  0  0  0
 36 67  1  0  0  0  0
 37 68  1  0  0  0  0
M  END
>  <docking-score>
-22.87

$$$$
1LD8_FPP_1
foFlexX   03232113463D 1   1.00000     0.00000     0
FlexX 4.5.0 fol007
 49 48  0  0  0  0            999 V2000
   14.1424  133.5077   -3.9258 C   0  0  0  0  0  0  0  0  0  0  0  0
   14.5867  132.1312   -3.4912 C   0  0  0  0  0  0  0  0  0  0  0  0
   13.6971  131.3131   -2.5912 C   0  0  0  0  0  0  0  0  0  0  0  0
   15.7578  131.5940   -3.8977 C   0  0  0  0  0  0  0  0  0  0  0  0
   16.7455  132.2797   -4.8124 C   0  0  0  0  0  0  0  0  0  0  0  0
   18.1889  131.8390   -4.5269 C   0  0  0  0  0  0  0  0  0  0  0  0
   18.8541  132.7235   -3.4918 C   0  0  0  0  0  0  0  0  0  0  0  0
   18.0857  133.1008   -2.2464 C   0  0  0  0  0  0  0  0  0  0  0  0
   20.1159  133.1581   -3.7109 C   0  0  0  0  0  0  0  0  0  0  0  0
   20.8877  134.0402   -2.7629 C   0  0  0  0  0  0  0  0  0  0  0  0
   21.8752  134.9246   -3.5325 C   0  0  0  0  0  0  0  0  0  0  0  0
   21.1473  135.8121   -4.5173 C   0  0  0  0  0  0  0  0  0  0  0  0
   21.9148  136.4192   -5.6686 C   0  0  0  0  0  0  0  0  0  0  0  0
   19.8274  136.0477   -4.3425 C   0  0  0  0  0  0  0  0  0  0  0  0
   19.0030  136.9119   -5.2566 C   0  0  0  0  0  0  0  0  0  0  0  0
   18.4607  136.1162   -6.2826 O   0  0  0  0  0  0  0  0  0  0  0  0
   18.6660  136.9327   -7.7671 P   0  0  0  0  0  0  0  0  0  0  0  0
   18.0954  136.0854   -8.8821 O   0  0  0  0  0  0  0  0  0  0  0  0
   20.3091  137.2055   -8.0760 O   0  5  0  0  0  0  0  0  0  0  0  0
   17.8372  138.4182   -7.7487 O   0  0  0  0  0  0  0  0  0  0  0  0
   16.2457  138.1232   -8.2733 P   0  0  0  0  0  0  0  0  0  0  0  0
   16.2966  137.5283   -9.6614 O   0  0  0  0  0  0  0  0  0  0  0  0
   15.4878  137.0201   -7.2381 O   0  5  0  0  0  0  0  0  0  0  0  0
   15.3462  139.5561   -8.3299 O   0  5  0  0  0  0  0  0  0  0  0  0
   14.8349  133.9073   -4.5265 H   0  0  0  0  0  0  0  0  0  0  0  0
   13.2746  133.4380   -4.4178 H   0  0  0  0  0  0  0  0  0  0  0  0
   14.0235  134.0892   -3.1210 H   0  0  0  0  0  0  0  0  0  0  0  0
   14.1284  130.4293   -2.4101 H   0  0  0  0  0  0  0  0  0  0  0  0
   13.5583  131.7992   -1.7284 H   0  0  0  0  0  0  0  0  0  0  0  0
   12.8142  131.1679   -3.0377 H   0  0  0  0  0  0  0  0  0  0  0  0
   15.9871  130.6775   -3.5698 H   0  0  0  0  0  0  0  0  0  0  0  0
   16.6768  133.2685   -4.6799 H   0  0  0  0  0  0  0  0  0  0  0  0
   16.5197  132.0538   -5.7601 H   0  0  0  0  0  0  0  0  0  0  0  0
   18.7147  131.8834   -5.3763 H   0  0  0  0  0  0  0  0  0  0  0  0
   18.1790  130.8976   -4.1898 H   0  0  0  0  0  0  0  0  0  0  0  0
   18.6539  133.6870   -1.6689 H   0  0  0  0  0  0  0  0  0  0  0  0
   17.2539  133.5924   -2.5041 H   0  0  0  0  0  0  0  0  0  0  0  0
   17.8408  132.2727   -1.7421 H   0  0  0  0  0  0  0  0  0  0  0  0
   20.5666  132.8757   -4.5577 H   0  0  0  0  0  0  0  0  0  0  0  0
   21.3934  133.4668   -2.1183 H   0  0  0  0  0  0  0  0  0  0  0  0
   20.2479  134.6220   -2.2606 H   0  0  0  0  0  0  0  0  0  0  0  0
   22.5183  134.3420   -4.0296 H   0  0  0  0  0  0  0  0  0  0  0  0
   22.3768  135.4970   -2.8839 H   0  0  0  0  0  0  0  0  0  0  0  0
   21.2981  136.9793   -6.2217 H   0  0  0  0  0  0  0  0  0  0  0  0
   22.6542  136.9903   -5.3120 H   0  0  0  0  0  0  0  0  0  0  0  0
   22.2999  135.6898   -6.2339 H   0  0  0  0  0  0  0  0  0  0  0  0
   19.3728  135.6226   -3.5598 H   0  0  0  0  0  0  0  0  0  0  0  0
   19.5814  137.6234   -5.6556 H   0  0  0  0  0  0  0  0  0  0  0  0
   18.2623  137.3373   -4.7365 H   0  0  0  0  0  0  0  0  0  0  0  0
  1  2  1  0  0  0  0
  2  3  1  0  0  0  0
  2  4  2  0  0  0  0
  4  5  1  0  0  0  0
  5  6  1  0  0  0  0
  6  7  1  0  0  0  0
  7  8  1  0  0  0  0
  7  9  2  0  0  0  0
  9 10  1  0  0  0  0
 10 11  1  0  0  0  0
 11 12  1  0  0  0  0
 12 13  1  0  0  0  0
 12 14  2  0  0  0  0
 14 15  1  0  0  0  0
 15 16  1  0  0  0  0
 16 17  1  0  0  0  0
 17 18  2  0  0  0  0
 17 19  1  0  0  0  0
 17 20  1  0  0  0  0
 20 21  1  0  0  0  0
 21 22  2  0  0  0  0
 21 23  1  0  0  0  0
 21 24  1  0  0  0  0
  1 25  1  0  0  0  0
  1 26  1  0  0  0  0
  1 27  1  0  0  0  0
  3 28  1  0  0  0  0
  3 29  1  0  0  0  0
  3 30  1  0  0  0  0
  4 31  1  0  0  0  0
  5 32  1  0  0  0  0
  5 33  1  0  0  0  0
  6 34  1  0  0  0  0
  6 35  1  0  0  0  0
  8 36  1  0  0  0  0
  8 37  1  0  0  0  0
  8 38  1  0  0  0  0
  9 39  1  0  0  0  0
 10 40  1  0  0  0  0
 10 41  1  0  0  0  0
 11 42  1  0  0  0  0
 11 43  1  0  0  0  0
 13 44  1  0  0  0  0
 13 45  1  0  0  0  0
 13 46  1  0  0  0  0
 14 47  1  0  0  0  0
 15 48  1  0  0  0  0
 15 49  1  0  0  0  0
M  CHG  3  19  -1  23  -1  24  -1
M  END
>  <docking-score>
-16.61

$$$$
1LD8_FPP_2
foFlexX   03232113463D 1   1.00000     0.00000     0
FlexX 4.5.0 fol007
 49 48  0  0  0  0            999 V2000
   15.0406  134.3134   -5.6683 C   0  0  0  0  0  0  0  0  0  0  0  0
   15.2330  133.3828   -4.4943 C   0  0  0  0  0  0  0  0  0  0  0  0
   14.0893  133.1398   -3.5438 C   0  0  0  0  0  0  0  0  0  0  0  0
   16.4006  132.7404   -4.2723 C   0  0  0  0  0  0  0  0  0  0  0  0
   17.6288  132.8655   -5.1432 C   0  0  0  0  0  0  0  0  0  0  0  0
   18.7897  132.0071   -4.6195 C   0  0  0  0  0  0  0  0  0  0  0  0
   19.6612  132.7720   -3.6441 C   0  0  0  0  0  0  0  0  0  0  0  0
   19.0403  133.3219   -2.3809 C   0  0  0  0  0  0  0  0  0  0  0  0
   20.9709  132.9491   -3.9311 C   0  0  0  0  0  0  0  0  0  0  0  0
   21.9424  133.6890   -3.0471 C   0  0  0  0  0  0  0  0  0  0  0  0
   22.5431  134.8871   -3.7909 C   0  0  0  0  0  0  0  0  0  0  0  0
   21.4605  135.8537   -4.2163 C   0  0  0  0  0  0  0  0  0  0  0  0
   20.5830  136.4873   -3.1620 C   0  0  0  0  0  0  0  0  0  0  0  0
   21.2977  136.1249   -5.5309 C   0  0  0  0  0  0  0  0  0  0  0  0
   20.2563  137.0677   -6.0684 C   0  0  0  0  0  0  0  0  0  0  0  0
   20.2033  136.9498   -7.4696 O   0  0  0  0  0  0  0  0  0  0  0  0
   18.5660  136.8782   -7.9455 P   0  0  0  0  0  0  0  0  0  0  0  0
   17.7574  136.2298   -6.8445 O   0  0  0  0  0  0  0  0  0  0  0  0
   18.3950  135.9616   -9.3592 O   0  5  0  0  0  0  0  0  0  0  0  0
   17.9531  138.4436   -8.2061 O   0  0  0  0  0  0  0  0  0  0  0  0
   16.3095  138.2881   -8.6179 P   0  0  0  0  0  0  0  0  0  0  0  0
   16.1997  138.1258  -10.1162 O   0  0  0  0  0  0  0  0  0  0  0  0
   15.6515  136.9179   -7.8745 O   0  5  0  0  0  0  0  0  0  0  0  0
   15.4318  139.6596   -8.1550 O   0  5  0  0  0  0  0  0  0  0  0  0
   15.8844  134.3536   -6.2036 H   0  0  0  0  0  0  0  0  0  0  0  0
   14.2965  133.9743   -6.2440 H   0  0  0  0  0  0  0  0  0  0  0  0
   14.8136  135.2284   -5.3347 H   0  0  0  0  0  0  0  0  0  0  0  0
   14.3756  132.4942   -2.8359 H   0  0  0  0  0  0  0  0  0  0  0  0
   13.8204  134.0037   -3.1180 H   0  0  0  0  0  0  0  0  0  0  0  0
   13.3128  132.7602   -4.0468 H   0  0  0  0  0  0  0  0  0  0  0  0
   16.4558  132.1395   -3.4750 H   0  0  0  0  0  0  0  0  0  0  0  0
   17.9167  133.8230   -5.1611 H   0  0  0  0  0  0  0  0  0  0  0  0
   17.3996  132.5690   -6.0704 H   0  0  0  0  0  0  0  0  0  0  0  0
   19.3507  131.7145   -5.3939 H   0  0  0  0  0  0  0  0  0  0  0  0
   18.4149  131.2035   -4.1571 H   0  0  0  0  0  0  0  0  0  0  0  0
   19.7376  133.8016   -1.8482 H   0  0  0  0  0  0  0  0  0  0  0  0
   18.3068  133.9583   -2.6196 H   0  0  0  0  0  0  0  0  0  0  0  0
   18.6656  132.5697   -1.8388 H   0  0  0  0  0  0  0  0  0  0  0  0
   21.3179  132.5637   -4.7862 H   0  0  0  0  0  0  0  0  0  0  0  0
   22.6778  133.0684   -2.7753 H   0  0  0  0  0  0  0  0  0  0  0  0
   21.4628  134.0147   -2.2323 H   0  0  0  0  0  0  0  0  0  0  0  0
   23.0276  134.5598   -4.6022 H   0  0  0  0  0  0  0  0  0  0  0  0
   23.1853  135.3592   -3.1870 H   0  0  0  0  0  0  0  0  0  0  0  0
   19.9189  137.0926   -3.6007 H   0  0  0  0  0  0  0  0  0  0  0  0
   20.0995  135.7722   -2.6570 H   0  0  0  0  0  0  0  0  0  0  0  0
   21.1498  137.0162   -2.5304 H   0  0  0  0  0  0  0  0  0  0  0  0
   21.9051  135.6724   -6.1838 H   0  0  0  0  0  0  0  0  0  0  0  0
   20.4956  138.0065   -5.8207 H   0  0  0  0  0  0  0  0  0  0  0  0
   19.3643  136.8373   -5.6795 H   0  0  0  0  0  0  0  0  0  0  0  0
  1  2  1  0  0  0  0
  2  3  1  0  0  0  0
  2  4  2  0  0  0  0
  4  5  1  0  0  0  0
  5  6  1  0  0  0  0
  6  7  1  0  0  0  0
  7  8  1  0  0  0  0
  7  9  2  0  0  0  0
  9 10  1  0  0  0  0
 10 11  1  0  0  0  0
 11 12  1  0  0  0  0
 12 13  1  0  0  0  0
 12 14  2  0  0  0  0
 14 15  1  0  0  0  0
 15 16  1  0  0  0  0
 16 17  1  0  0  0  0
 17 18  2  0  0  0  0
 17 19  1  0  0  0  0
 17 20  1  0  0  0  0
 20 21  1  0  0  0  0
 21 22  2  0  0  0  0
 21 23  1  0  0  0  0
 21 24  1  0  0  0  0
  1 25  1  0  0  0  0
  1 26  1  0  0  0  0
  1 27  1  0  0  0  0
  3 28  1  0  0  0  0
  3 29  1  0  0  0  0
  3 30  1  0  0  0  0
  4 31  1  0  0  0  0
  5 32  1  0  0  0  0
  5 33  1  0  0  0  0
  6 34  1  0  0  0  0
  6 35  1  0  0  0  0
  8 36  1  0  0  0  0
  8 37  1  0  0  0  0
  8 38  1  0  0  0  0
  9 39  1  0  0  0  0
 10 40  1  0  0  0  0
 10 41  1  0  0  0  0
 11 42  1  0  0  0  0
 11 43  1  0  0  0  0
 13 44  1  0  0  0  0
 13 45  1  0  0  0  0
 13 46  1  0  0  0  0
 14 47  1  0  0  0  0
 15 48  1  0  0  0  0
 15 49  1  0  0  0  0
M  CHG  3  19  -1  23  -1  24  -1
M  END
>  <docking-score>
-15.29

$$$$
1LD8_FPP_3
foFlexX   03232113463D 1   1.00000     0.00000     0
FlexX 4.5.0 fol007
 49 48  0  0  0  0            999 V2000
   18.5565  134.0087    0.8023 C   0  0  0  0  0  0  0  0  0  0  0  0
   17.4917  134.8079    0.0890 C   0  0  0  0  0  0  0  0  0  0  0  0
   16.8284  135.9605    0.7976 C   0  0  0  0  0  0  0  0  0  0  0  0
   17.1200  134.5345   -1.1807 C   0  0  0  0  0  0  0  0  0  0  0  0
   17.7036  133.4272   -2.0269 C   0  0  0  0  0  0  0  0  0  0  0  0
   16.9266  132.1127   -1.8617 C   0  0  0  0  0  0  0  0  0  0  0  0
   15.7957  131.9965   -2.8636 C   0  0  0  0  0  0  0  0  0  0  0  0
   14.6670  131.0304   -2.5871 C   0  0  0  0  0  0  0  0  0  0  0  0
   15.8276  132.7551   -3.9827 C   0  0  0  0  0  0  0  0  0  0  0  0
   14.7678  132.7338   -5.0546 C   0  0  0  0  0  0  0  0  0  0  0  0
   13.6755  133.7661   -4.7533 C   0  0  0  0  0  0  0  0  0  0  0  0
   14.0113  135.1020   -5.3778 C   0  0  0  0  0  0  0  0  0  0  0  0
   14.4950  136.2276   -4.4935 C   0  0  0  0  0  0  0  0  0  0  0  0
   13.8654  135.2615   -6.7125 C   0  0  0  0  0  0  0  0  0  0  0  0
   14.1683  136.5422   -7.4406 C   0  0  0  0  0  0  0  0  0  0  0  0
   15.5593  136.7545   -7.4461 O   0  0  0  0  0  0  0  0  0  0  0  0
   15.8595  138.3872   -7.0500 P   0  0  0  0  0  0  0  0  0  0  0  0
   15.2872  138.6785   -5.6810 O   0  0  0  0  0  0  0  0  0  0  0  0
   15.1289  139.4187   -8.1769 O   0  5  0  0  0  0  0  0  0  0  0  0
   17.5329  138.6903   -7.0040 O   0  0  0  0  0  0  0  0  0  0  0  0
   18.3265  137.2476   -7.4330 P   0  0  0  0  0  0  0  0  0  0  0  0
   17.9268  136.1668   -6.4555 O   0  0  0  0  0  0  0  0  0  0  0  0
   17.8632  136.7700   -8.9886 O   0  5  0  0  0  0  0  0  0  0  0  0
   20.0079  137.4357   -7.3759 O   0  5  0  0  0  0  0  0  0  0  0  0
   18.9018  133.2949    0.1931 H   0  0  0  0  0  0  0  0  0  0  0  0
   19.3076  134.6143    1.0654 H   0  0  0  0  0  0  0  0  0  0  0  0
   18.1653  133.5879    1.6208 H   0  0  0  0  0  0  0  0  0  0  0  0
   16.1624  136.3885    0.1866 H   0  0  0  0  0  0  0  0  0  0  0  0
   16.3623  135.6249    1.6161 H   0  0  0  0  0  0  0  0  0  0  0  0
   17.5203  136.6331    1.0601 H   0  0  0  0  0  0  0  0  0  0  0  0
   16.4082  135.1055   -1.5895 H   0  0  0  0  0  0  0  0  0  0  0  0
   18.6539  133.2779   -1.7540 H   0  0  0  0  0  0  0  0  0  0  0  0
   17.6721  133.7032   -2.9876 H   0  0  0  0  0  0  0  0  0  0  0  0
   16.5455  132.0761   -0.9379 H   0  0  0  0  0  0  0  0  0  0  0  0
   17.5555  131.3464   -1.9934 H   0  0  0  0  0  0  0  0  0  0  0  0
   14.0069  131.0655   -3.3374 H   0  0  0  0  0  0  0  0  0  0  0  0
   15.0335  130.1032   -2.5087 H   0  0  0  0  0  0  0  0  0  0  0  0
   14.2138  131.2831   -1.7322 H   0  0  0  0  0  0  0  0  0  0  0  0
   16.6056  133.3709   -4.1074 H   0  0  0  0  0  0  0  0  0  0  0  0
   14.3575  131.8227   -5.0930 H   0  0  0  0  0  0  0  0  0  0  0  0
   15.1879  132.9476   -5.9365 H   0  0  0  0  0  0  0  0  0  0  0  0
   13.5949  133.8783   -3.7629 H   0  0  0  0  0  0  0  0  0  0  0  0
   12.8057  133.4404   -5.1238 H   0  0  0  0  0  0  0  0  0  0  0  0
   14.6682  137.0391   -5.0516 H   0  0  0  0  0  0  0  0  0  0  0  0
   13.7972  136.4368   -3.8085 H   0  0  0  0  0  0  0  0  0  0  0  0
   15.3399  135.9518   -4.0351 H   0  0  0  0  0  0  0  0  0  0  0  0
   13.5371  134.4825   -7.2467 H   0  0  0  0  0  0  0  0  0  0  0  0
   13.7155  137.3047   -6.9782 H   0  0  0  0  0  0  0  0  0  0  0  0
   13.8360  136.4784   -8.3816 H   0  0  0  0  0  0  0  0  0  0  0  0
  1  2  1  0  0  0  0
  2  3  1  0  0  0  0
  2  4  2  0  0  0  0
  4  5  1  0  0  0  0
  5  6  1  0  0  0  0
  6  7  1  0  0  0  0
  7  8  1  0  0  0  0
  7  9  2  0  0  0  0
  9 10  1  0  0  0  0
 10 11  1  0  0  0  0
 11 12  1  0  0  0  0
 12 13  1  0  0  0  0
 12 14  2  0  0  0  0
 14 15  1  0  0  0  0
 15 16  1  0  0  0  0
 16 17  1  0  0  0  0
 17 18  2  0  0  0  0
 17 19  1  0  0  0  0
 17 20  1  0  0  0  0
 20 21  1  0  0  0  0
 21 22  2  0  0  0  0
 21 23  1  0  0  0  0
 21 24  1  0  0  0  0
  1 25  1  0  0  0  0
  1 26  1  0  0  0  0
  1 27  1  0  0  0  0
  3 28  1  0  0  0  0
  3 29  1  0  0  0  0
  3 30  1  0  0  0  0
  4 31  1  0  0  0  0
  5 32  1  0  0  0  0
  5 33  1  0  0  0  0
  6 34  1  0  0  0  0
  6 35  1  0  0  0  0
  8 36  1  0  0  0  0
  8 37  1  0  0  0  0
  8 38  1  0  0  0  0
  9 39  1  0  0  0  0
 10 40  1  0  0  0  0
 10 41  1  0  0  0  0
 11 42  1  0  0  0  0
 11 43  1  0  0  0  0
 13 44  1  0  0  0  0
 13 45  1  0  0  0  0
 13 46  1  0  0  0  0
 14 47  1  0  0  0  0
 15 48  1  0  0  0  0
 15 49  1  0  0  0  0
M  CHG  3  19  -1  23  -1  24  -1
M  END
>  <docking-score>
-15.27

$$$$
