1JCQ_739_1
foFlexX   03192112253D 1   1.00000     0.00000     0
FlexX 4.5.0 fol007
 74 74  0  0  0  0            999 V2000
   22.7398  137.3321    5.7327 C   0  0  0  0  0  0  0  0  0  0  0  0
   23.0671  136.2367    4.7146 C   0  0  0  0  0  0  0  0  0  0  0  0
   21.8360  135.7318    3.9098 C   0  0  1  0  0  0  0  0  0  0  0  0
   22.2750  134.6911    2.8560 C   0  0  0  0  0  0  0  0  0  0  0  0
   20.7407  135.1294    4.8659 C   0  0  1  0  0  0  0  0  0  0  0  0
   19.3960  134.8131    4.1565 C   0  0  0  0  0  0  0  0  0  0  0  0
   19.2919  133.4330    3.8656 O   0  0  0  0  0  0  0  0  0  0  0  0
   18.5103  133.2188    2.7027 C   0  0  1  0  0  0  0  0  0  0  0  0
   18.8457  134.3008    1.6665 C   0  0  0  0  0  0  0  0  0  0  0  0
   17.6579  134.6043    0.7903 C   0  0  0  0  0  0  0  0  0  0  0  0
   16.7630  135.5983    1.1714 C   0  0  0  0  0  0  0  0  0  0  0  0
   15.6685  135.8731    0.3584 C   0  0  0  0  0  0  0  0  0  0  0  0
   15.4713  135.1635   -0.8207 C   0  0  0  0  0  0  0  0  0  0  0  0
   16.3715  134.1705   -1.1939 C   0  0  0  0  0  0  0  0  0  0  0  0
   17.4691  133.8884   -0.3875 C   0  0  0  0  0  0  0  0  0  0  0  0
   18.7976  131.8607    2.1137 C   0  0  0  0  0  0  0  0  0  0  0  0
   18.5857  130.8316    2.8107 O   0  0  0  0  0  0  0  0  0  0  0  0
   19.2825  131.7395    0.7666 N   0  0  0  0  0  0  0  0  0  0  0  0
   19.5565  130.4482    0.1281 C   0  0  2  0  0  0  0  0  0  0  0  0
   20.0690  130.6523   -1.3071 C   0  0  0  0  0  0  0  0  0  0  0  0
   21.5967  130.7724   -1.3545 C   0  0  0  0  0  0  0  0  0  0  0  0
   22.1240  131.8093   -2.7119 S   0  0  0  0  0  0  0  0  0  0  0  0
   22.3772  130.8181   -4.1679 C   0  0  0  0  0  0  0  0  0  0  0  0
   23.4173  132.4796   -2.3434 O   0  0  0  0  0  0  0  0  0  0  0  0
   21.0886  132.8593   -3.0021 O   0  0  0  0  0  0  0  0  0  0  0  0
   18.3010  129.6248    0.1154 C   0  0  0  0  0  0  0  0  0  0  0  0
   17.1771  130.1815    0.2277 O   0  0  0  0  0  0  0  0  0  0  0  0
   18.3711  128.2421   -0.0090 O   0  5  0  0  0  0  0  0  0  0  0  0
   21.2118  133.9710    5.6742 N   0  3  0  0  0  0  0  0  0  0  0  0
   22.6193  133.5811    5.4471 C   0  0  0  0  0  0  0  0  0  0  0  0
   23.0471  132.3709    6.3174 C   0  0  1  0  0  0  0  0  0  0  0  0
   22.2848  132.3739    7.5737 N   0  3  0  0  0  0  0  0  0  0  0  0
   22.8524  131.0207    5.5853 C   0  0  0  0  0  0  0  0  0  0  0  0
   23.7583  130.9611    4.0486 S   0  0  0  0  0  0  0  0  0  0  0  0
   22.0770  136.9839    6.3955 H   0  0  0  0  0  0  0  0  0  0  0  0
   23.5756  137.6050    6.2090 H   0  0  0  0  0  0  0  0  0  0  0  0
   22.3530  138.1230    5.2585 H   0  0  0  0  0  0  0  0  0  0  0  0
   23.4623  135.4598    5.2048 H   0  0  0  0  0  0  0  0  0  0  0  0
   23.7383  136.5990    4.0678 H   0  0  0  0  0  0  0  0  0  0  0  0
   21.4358  136.5123    3.4296 H   0  0  0  0  0  0  0  0  0  0  0  0
   21.4843  134.4170    2.3086 H   0  0  0  0  0  0  0  0  0  0  0  0
   22.9699  135.0931    2.2598 H   0  0  0  0  0  0  0  0  0  0  0  0
   22.6551  133.8894    3.3174 H   0  0  0  0  0  0  0  0  0  0  0  0
   20.5333  135.8514    5.5259 H   0  0  0  0  0  0  0  0  0  0  0  0
   19.3457  135.3323    3.3033 H   0  0  0  0  0  0  0  0  0  0  0  0
   18.6398  135.0798    4.7540 H   0  0  0  0  0  0  0  0  0  0  0  0
   17.5408  133.2778    2.9404 H   0  0  0  0  0  0  0  0  0  0  0  0
   19.6002  133.9807    1.0935 H   0  0  0  0  0  0  0  0  0  0  0  0
   19.1205  135.1354    2.1438 H   0  0  0  0  0  0  0  0  0  0  0  0
   16.9047  136.1090    2.0194 H   0  0  0  0  0  0  0  0  0  0  0  0
   15.0192  136.5859    0.6238 H   0  0  0  0  0  0  0  0  0  0  0  0
   14.6823  135.3667   -1.4006 H   0  0  0  0  0  0  0  0  0  0  0  0
   16.2295  133.6597   -2.0418 H   0  0  0  0  0  0  0  0  0  0  0  0
   18.1184  133.1755   -0.6526 H   0  0  0  0  0  0  0  0  0  0  0  0
   19.4405  132.5747    0.2399 H   0  0  0  0  0  0  0  0  0  0  0  0
   20.2553  129.9665    0.6568 H   0  0  0  0  0  0  0  0  0  0  0  0
   19.6668  131.4892   -1.6785 H   0  0  0  0  0  0  0  0  0  0  0  0
   19.7882  129.8714   -1.8652 H   0  0  0  0  0  0  0  0  0  0  0  0
   21.9918  129.8608   -1.4682 H   0  0  0  0  0  0  0  0  0  0  0  0
   21.9190  131.1707   -0.4958 H   0  0  0  0  0  0  0  0  0  0  0  0
   23.0744  130.1256   -3.9826 H   0  0  0  0  0  0  0  0  0  0  0  0
   21.5196  130.3689   -4.4186 H   0  0  0  0  0  0  0  0  0  0  0  0
   22.6798  131.4027   -4.9207 H   0  0  0  0  0  0  0  0  0  0  0  0
   20.6333  133.1850    5.4563 H   0  0  0  0  0  0  0  0  0  0  0  0
   21.1068  134.2043    6.6410 H   0  0  0  0  0  0  0  0  0  0  0  0
   23.2074  134.3591    5.6681 H   0  0  0  0  0  0  0  0  0  0  0  0
   22.7339  133.3398    4.4835 H   0  0  0  0  0  0  0  0  0  0  0  0
   24.0171  132.4708    6.5387 H   0  0  0  0  0  0  0  0  0  0  0  0
   22.8587  132.0208    8.3126 H   0  0  0  0  0  0  0  0  0  0  0  0
   22.0013  133.3083    7.7893 H   0  0  0  0  0  0  0  0  0  0  0  0
   21.4758  131.7947    7.4741 H   0  0  0  0  0  0  0  0  0  0  0  0
   21.8793  130.8948    5.3922 H   0  0  0  0  0  0  0  0  0  0  0  0
   23.1727  130.2820    6.1785 H   0  0  0  0  0  0  0  0  0  0  0  0
   24.5778  131.5294    4.1225 H   0  0  0  0  0  0  0  0  0  0  0  0
  1  2  1  0  0  0  0
  2  3  1  0  0  0  0
  3  4  1  0  0  0  0
  3  5  1  0  0  0  0
  5  6  1  0  0  0  0
  6  7  1  0  0  0  0
  7  8  1  0  0  0  0
  8  9  1  0  0  0  0
  9 10  1  0  0  0  0
 10 11  2  0  0  0  0
 11 12  1  0  0  0  0
 12 13  2  0  0  0  0
 13 14  1  0  0  0  0
 14 15  2  0  0  0  0
  8 16  1  0  0  0  0
 16 17  2  0  0  0  0
 16 18  1  0  0  0  0
 18 19  1  0  0  0  0
 19 20  1  0  0  0  0
 20 21  1  0  0  0  0
 21 22  1  0  0  0  0
 22 23  1  0  0  0  0
 22 24  2  0  0  0  0
 22 25  2  0  0  0  0
 19 26  1  0  0  0  0
 26 27  2  0  0  0  0
 26 28  1  0  0  0  0
  5 29  1  0  0  0  0
 29 30  1  0  0  0  0
 30 31  1  0  0  0  0
 31 32  1  0  0  0  0
 31 33  1  0  0  0  0
 33 34  1  0  0  0  0
 15 10  1  0  0  0  0
  1 35  1  0  0  0  0
  1 36  1  0  0  0  0
  1 37  1  0  0  0  0
  2 38  1  0  0  0  0
  2 39  1  0  0  0  0
  3 40  1  0  0  0  0
  4 41  1  0  0  0  0
  4 42  1  0  0  0  0
  4 43  1  0  0  0  0
  5 44  1  0  0  0  0
  6 45  1  0  0  0  0
  6 46  1  0  0  0  0
  8 47  1  0  0  0  0
  9 48  1  0  0  0  0
  9 49  1  0  0  0  0
 11 50  1  0  0  0  0
 12 51  1  0  0  0  0
 13 52  1  0  0  0  0
 14 53  1  0  0  0  0
 15 54  1  0  0  0  0
 18 55  1  0  0  0  0
 19 56  1  0  0  0  0
 20 57  1  0  0  0  0
 20 58  1  0  0  0  0
 21 59  1  0  0  0  0
 21 60  1  0  0  0  0
 23 61  1  0  0  0  0
 23 62  1  0  0  0  0
 23 63  1  0  0  0  0
 29 64  1  0  0  0  0
 29 65  1  0  0  0  0
 30 66  1  0  0  0  0
 30 67  1  0  0  0  0
 31 68  1  0  0  0  0
 32 69  1  0  0  0  0
 32 70  1  0  0  0  0
 32 71  1  0  0  0  0
 33 72  1  0  0  0  0
 33 73  1  0  0  0  0
 34 74  1  0  0  0  0
M  CHG  3  28  -1  29   1  32   1
M  END
>  <docking-score>
-18.94

$$$$
1JCQ_739_2
foFlexX   03192112253D 1   1.00000     0.00000     0
FlexX 4.5.0 fol007
 74 74  0  0  0  0            999 V2000
   22.3484  137.9172    2.7281 C   0  0  0  0  0  0  0  0  0  0  0  0
   21.2925  136.8720    3.0972 C   0  0  0  0  0  0  0  0  0  0  0  0
   21.8559  135.6512    3.8786 C   0  0  1  0  0  0  0  0  0  0  0  0
   23.1262  136.0549    4.6595 C   0  0  0  0  0  0  0  0  0  0  0  0
   20.7729  135.0488    4.8486 C   0  0  1  0  0  0  0  0  0  0  0  0
   19.4101  134.7591    4.1628 C   0  0  0  0  0  0  0  0  0  0  0  0
   19.2828  133.3847    3.8549 O   0  0  0  0  0  0  0  0  0  0  0  0
   18.4749  133.1967    2.7055 C   0  0  1  0  0  0  0  0  0  0  0  0
   18.8025  134.2891    1.6777 C   0  0  0  0  0  0  0  0  0  0  0  0
   17.6009  134.6196    0.8306 C   0  0  0  0  0  0  0  0  0  0  0  0
   16.7266  135.6190    1.2440 C   0  0  0  0  0  0  0  0  0  0  0  0
   15.6193  135.9187    0.4577 C   0  0  0  0  0  0  0  0  0  0  0  0
   15.3890  135.2284   -0.7270 C   0  0  0  0  0  0  0  0  0  0  0  0
   16.2689  134.2298   -1.1325 C   0  0  0  0  0  0  0  0  0  0  0  0
   17.3791  133.9228   -0.3529 C   0  0  0  0  0  0  0  0  0  0  0  0
   18.7329  131.8436    2.0918 C   0  0  0  0  0  0  0  0  0  0  0  0
   18.5225  130.8074    2.7786 O   0  0  0  0  0  0  0  0  0  0  0  0
   19.1886  131.7356    0.7334 N   0  0  0  0  0  0  0  0  0  0  0  0
   19.4332  130.4503    0.0714 C   0  0  2  0  0  0  0  0  0  0  0  0
   19.9187  130.6684   -1.3711 C   0  0  0  0  0  0  0  0  0  0  0  0
   21.4465  130.7704   -1.4483 C   0  0  0  0  0  0  0  0  0  0  0  0
   21.9590  131.8200   -2.8017 S   0  0  0  0  0  0  0  0  0  0  0  0
   22.1698  130.8465   -4.2763 C   0  0  0  0  0  0  0  0  0  0  0  0
   23.2678  132.4691   -2.4506 O   0  0  0  0  0  0  0  0  0  0  0  0
   20.9312  132.8866   -3.0558 O   0  0  0  0  0  0  0  0  0  0  0  0
   18.1675  129.6427    0.0731 C   0  0  0  0  0  0  0  0  0  0  0  0
   17.0532  130.2114    0.2164 O   0  0  0  0  0  0  0  0  0  0  0  0
   18.2176  128.2611   -0.0719 O   0  5  0  0  0  0  0  0  0  0  0  0
   21.2459  133.8733    5.6308 N   0  3  0  0  0  0  0  0  0  0  0  0
   22.6434  133.4695    5.3693 C   0  0  0  0  0  0  0  0  0  0  0  0
   23.0737  132.2418    6.2136 C   0  0  1  0  0  0  0  0  0  0  0  0
   22.3374  132.2364    7.4853 N   0  3  0  0  0  0  0  0  0  0  0  0
   22.8470  130.9046    5.4669 C   0  0  0  0  0  0  0  0  0  0  0  0
   23.7205  130.8558    3.9111 S   0  0  0  0  0  0  0  0  0  0  0  0
   23.0477  137.4951    2.1512 H   0  0  0  0  0  0  0  0  0  0  0  0
   21.9144  138.6681    2.2304 H   0  0  0  0  0  0  0  0  0  0  0  0
   22.7728  138.2710    3.5616 H   0  0  0  0  0  0  0  0  0  0  0  0
   20.8720  136.5383    2.2535 H   0  0  0  0  0  0  0  0  0  0  0  0
   20.5972  137.3142    3.6639 H   0  0  0  0  0  0  0  0  0  0  0  0
   22.1080  134.9460    3.2159 H   0  0  0  0  0  0  0  0  0  0  0  0
   23.5099  135.2495    5.1111 H   0  0  0  0  0  0  0  0  0  0  0  0
   23.8003  136.4346    4.0259 H   0  0  0  0  0  0  0  0  0  0  0  0
   22.8907  136.7420    5.3468 H   0  0  0  0  0  0  0  0  0  0  0  0
   20.5881  135.7639    5.5228 H   0  0  0  0  0  0  0  0  0  0  0  0
   19.3489  135.2910    3.3181 H   0  0  0  0  0  0  0  0  0  0  0  0
   18.6697  135.0266    4.7795 H   0  0  0  0  0  0  0  0  0  0  0  0
   17.5112  133.2642    2.9640 H   0  0  0  0  0  0  0  0  0  0  0  0
   19.5410  133.9680    1.0849 H   0  0  0  0  0  0  0  0  0  0  0  0
   19.0975  135.1134    2.1609 H   0  0  0  0  0  0  0  0  0  0  0  0
   16.8921  136.1158    2.0959 H   0  0  0  0  0  0  0  0  0  0  0  0
   14.9845  136.6355    0.7463 H   0  0  0  0  0  0  0  0  0  0  0  0
   14.5910  135.4495   -1.2876 H   0  0  0  0  0  0  0  0  0  0  0  0
   16.1032  133.7329   -1.9843 H   0  0  0  0  0  0  0  0  0  0  0  0
   18.0138  133.2058   -0.6413 H   0  0  0  0  0  0  0  0  0  0  0  0
   19.3463  132.5763    0.2153 H   0  0  0  0  0  0  0  0  0  0  0  0
   20.1366  129.9525    0.5788 H   0  0  0  0  0  0  0  0  0  0  0  0
   19.5196  131.5154   -1.7224 H   0  0  0  0  0  0  0  0  0  0  0  0
   19.6168  129.8991   -1.9341 H   0  0  0  0  0  0  0  0  0  0  0  0
   21.8278  129.8558   -1.5828 H   0  0  0  0  0  0  0  0  0  0  0  0
   21.7914  131.1525   -0.5910 H   0  0  0  0  0  0  0  0  0  0  0  0
   22.8619  130.1429   -4.1152 H   0  0  0  0  0  0  0  0  0  0  0  0
   21.3017  130.4115   -4.5155 H   0  0  0  0  0  0  0  0  0  0  0  0
   22.4643  131.4380   -5.0270 H   0  0  0  0  0  0  0  0  0  0  0  0
   20.6532  133.0977    5.4139 H   0  0  0  0  0  0  0  0  0  0  0  0
   21.1636  134.0941    6.6027 H   0  0  0  0  0  0  0  0  0  0  0  0
   23.2456  134.2370    5.5889 H   0  0  0  0  0  0  0  0  0  0  0  0
   22.7352  133.2405    4.4002 H   0  0  0  0  0  0  0  0  0  0  0  0
   24.0492  132.3267    6.4162 H   0  0  0  0  0  0  0  0  0  0  0  0
   22.9217  131.8658    8.2072 H   0  0  0  0  0  0  0  0  0  0  0  0
   22.0701  133.1710    7.7197 H   0  0  0  0  0  0  0  0  0  0  0  0
   21.5192  131.6686    7.3943 H   0  0  0  0  0  0  0  0  0  0  0  0
   21.8687  130.7935    5.2922 H   0  0  0  0  0  0  0  0  0  0  0  0
   23.1702  130.1538    6.0429 H   0  0  0  0  0  0  0  0  0  0  0  0
   24.5484  131.4129    3.9760 H   0  0  0  0  0  0  0  0  0  0  0  0
  1  2  1  0  0  0  0
  2  3  1  0  0  0  0
  3  4  1  0  0  0  0
  3  5  1  0  0  0  0
  5  6  1  0  0  0  0
  6  7  1  0  0  0  0
  7  8  1  0  0  0  0
  8  9  1  0  0  0  0
  9 10  1  0  0  0  0
 10 11  2  0  0  0  0
 11 12  1  0  0  0  0
 12 13  2  0  0  0  0
 13 14  1  0  0  0  0
 14 15  2  0  0  0  0
  8 16  1  0  0  0  0
 16 17  2  0  0  0  0
 16 18  1  0  0  0  0
 18 19  1  0  0  0  0
 19 20  1  0  0  0  0
 20 21  1  0  0  0  0
 21 22  1  0  0  0  0
 22 23  1  0  0  0  0
 22 24  2  0  0  0  0
 22 25  2  0  0  0  0
 19 26  1  0  0  0  0
 26 27  2  0  0  0  0
 26 28  1  0  0  0  0
  5 29  1  0  0  0  0
 29 30  1  0  0  0  0
 30 31  1  0  0  0  0
 31 32  1  0  0  0  0
 31 33  1  0  0  0  0
 33 34  1  0  0  0  0
 15 10  1  0  0  0  0
  1 35  1  0  0  0  0
  1 36  1  0  0  0  0
  1 37  1  0  0  0  0
  2 38  1  0  0  0  0
  2 39  1  0  0  0  0
  3 40  1  0  0  0  0
  4 41  1  0  0  0  0
  4 42  1  0  0  0  0
  4 43  1  0  0  0  0
  5 44  1  0  0  0  0
  6 45  1  0  0  0  0
  6 46  1  0  0  0  0
  8 47  1  0  0  0  0
  9 48  1  0  0  0  0
  9 49  1  0  0  0  0
 11 50  1  0  0  0  0
 12 51  1  0  0  0  0
 13 52  1  0  0  0  0
 14 53  1  0  0  0  0
 15 54  1  0  0  0  0
 18 55  1  0  0  0  0
 19 56  1  0  0  0  0
 20 57  1  0  0  0  0
 20 58  1  0  0  0  0
 21 59  1  0  0  0  0
 21 60  1  0  0  0  0
 23 61  1  0  0  0  0
 23 62  1  0  0  0  0
 23 63  1  0  0  0  0
 29 64  1  0  0  0  0
 29 65  1  0  0  0  0
 30 66  1  0  0  0  0
 30 67  1  0  0  0  0
 31 68  1  0  0  0  0
 32 69  1  0  0  0  0
 32 70  1  0  0  0  0
 32 71  1  0  0  0  0
 33 72  1  0  0  0  0
 33 73  1  0  0  0  0
 34 74  1  0  0  0  0
M  CHG  3  28  -1  29   1  32   1
M  END
>  <docking-score>
-18.53

$$$$
1JCQ_739_3
foFlexX   03192112253D 1   1.00000     0.00000     0
FlexX 4.5.0 fol007
 74 74  0  0  0  0            999 V2000
   22.0271  133.4690    2.4969 C   0  0  0  0  0  0  0  0  0  0  0  0
   21.7887  134.9811    2.4769 C   0  0  0  0  0  0  0  0  0  0  0  0
   21.8559  135.6512    3.8786 C   0  0  1  0  0  0  0  0  0  0  0  0
   21.6848  137.1811    3.7497 C   0  0  0  0  0  0  0  0  0  0  0  0
   20.7729  135.0488    4.8486 C   0  0  1  0  0  0  0  0  0  0  0  0
   19.4101  134.7591    4.1628 C   0  0  0  0  0  0  0  0  0  0  0  0
   19.2828  133.3847    3.8549 O   0  0  0  0  0  0  0  0  0  0  0  0
   18.4749  133.1967    2.7055 C   0  0  1  0  0  0  0  0  0  0  0  0
   18.8025  134.2891    1.6777 C   0  0  0  0  0  0  0  0  0  0  0  0
   17.6009  134.6196    0.8306 C   0  0  0  0  0  0  0  0  0  0  0  0
   16.7266  135.6190    1.2440 C   0  0  0  0  0  0  0  0  0  0  0  0
   15.6193  135.9187    0.4577 C   0  0  0  0  0  0  0  0  0  0  0  0
   15.3890  135.2284   -0.7270 C   0  0  0  0  0  0  0  0  0  0  0  0
   16.2689  134.2298   -1.1325 C   0  0  0  0  0  0  0  0  0  0  0  0
   17.3791  133.9228   -0.3529 C   0  0  0  0  0  0  0  0  0  0  0  0
   18.7329  131.8436    2.0918 C   0  0  0  0  0  0  0  0  0  0  0  0
   18.5225  130.8074    2.7786 O   0  0  0  0  0  0  0  0  0  0  0  0
   19.1886  131.7356    0.7334 N   0  0  0  0  0  0  0  0  0  0  0  0
   19.4332  130.4503    0.0714 C   0  0  2  0  0  0  0  0  0  0  0  0
   19.9187  130.6684   -1.3711 C   0  0  0  0  0  0  0  0  0  0  0  0
   21.4465  130.7704   -1.4483 C   0  0  0  0  0  0  0  0  0  0  0  0
   21.9590  131.8200   -2.8017 S   0  0  0  0  0  0  0  0  0  0  0  0
   22.1698  130.8465   -4.2763 C   0  0  0  0  0  0  0  0  0  0  0  0
   23.2678  132.4691   -2.4506 O   0  0  0  0  0  0  0  0  0  0  0  0
   20.9312  132.8866   -3.0558 O   0  0  0  0  0  0  0  0  0  0  0  0
   18.1675  129.6427    0.0731 C   0  0  0  0  0  0  0  0  0  0  0  0
   17.0532  130.2114    0.2164 O   0  0  0  0  0  0  0  0  0  0  0  0
   18.2176  128.2611   -0.0719 O   0  5  0  0  0  0  0  0  0  0  0  0
   21.2459  133.8733    5.6308 N   0  3  0  0  0  0  0  0  0  0  0  0
   22.6434  133.4695    5.3693 C   0  0  0  0  0  0  0  0  0  0  0  0
   23.0737  132.2418    6.2136 C   0  0  1  0  0  0  0  0  0  0  0  0
   22.3374  132.2364    7.4853 N   0  3  0  0  0  0  0  0  0  0  0  0
   22.8470  130.9046    5.4669 C   0  0  0  0  0  0  0  0  0  0  0  0
   23.7205  130.8558    3.9111 S   0  0  0  0  0  0  0  0  0  0  0  0
   21.3332  133.0296    3.0673 H   0  0  0  0  0  0  0  0  0  0  0  0
   21.9690  133.1101    1.5653 H   0  0  0  0  0  0  0  0  0  0  0  0
   22.9349  133.2796    2.8710 H   0  0  0  0  0  0  0  0  0  0  0  0
   20.8824  135.1513    2.0902 H   0  0  0  0  0  0  0  0  0  0  0  0
   22.4841  135.4013    1.8940 H   0  0  0  0  0  0  0  0  0  0  0  0
   22.7589  135.4700    4.2681 H   0  0  0  0  0  0  0  0  0  0  0  0
   21.7863  137.6049    4.6497 H   0  0  0  0  0  0  0  0  0  0  0  0
   22.3813  137.5433    3.1302 H   0  0  0  0  0  0  0  0  0  0  0  0
   20.7762  137.3854    3.3856 H   0  0  0  0  0  0  0  0  0  0  0  0
   20.5881  135.7639    5.5228 H   0  0  0  0  0  0  0  0  0  0  0  0
   19.3489  135.2910    3.3181 H   0  0  0  0  0  0  0  0  0  0  0  0
   18.6697  135.0266    4.7795 H   0  0  0  0  0  0  0  0  0  0  0  0
   17.5112  133.2642    2.9640 H   0  0  0  0  0  0  0  0  0  0  0  0
   19.5410  133.9680    1.0849 H   0  0  0  0  0  0  0  0  0  0  0  0
   19.0975  135.1134    2.1609 H   0  0  0  0  0  0  0  0  0  0  0  0
   16.8921  136.1158    2.0959 H   0  0  0  0  0  0  0  0  0  0  0  0
   14.9845  136.6355    0.7463 H   0  0  0  0  0  0  0  0  0  0  0  0
   14.5910  135.4495   -1.2876 H   0  0  0  0  0  0  0  0  0  0  0  0
   16.1032  133.7329   -1.9843 H   0  0  0  0  0  0  0  0  0  0  0  0
   18.0138  133.2058   -0.6413 H   0  0  0  0  0  0  0  0  0  0  0  0
   19.3463  132.5763    0.2153 H   0  0  0  0  0  0  0  0  0  0  0  0
   20.1366  129.9525    0.5788 H   0  0  0  0  0  0  0  0  0  0  0  0
   19.5196  131.5154   -1.7224 H   0  0  0  0  0  0  0  0  0  0  0  0
   19.6168  129.8991   -1.9341 H   0  0  0  0  0  0  0  0  0  0  0  0
   21.8278  129.8558   -1.5828 H   0  0  0  0  0  0  0  0  0  0  0  0
   21.7914  131.1525   -0.5910 H   0  0  0  0  0  0  0  0  0  0  0  0
   22.8619  130.1429   -4.1152 H   0  0  0  0  0  0  0  0  0  0  0  0
   21.3017  130.4115   -4.5155 H   0  0  0  0  0  0  0  0  0  0  0  0
   22.4643  131.4380   -5.0270 H   0  0  0  0  0  0  0  0  0  0  0  0
   20.6532  133.0977    5.4139 H   0  0  0  0  0  0  0  0  0  0  0  0
   21.1636  134.0941    6.6027 H   0  0  0  0  0  0  0  0  0  0  0  0
   23.2456  134.2370    5.5889 H   0  0  0  0  0  0  0  0  0  0  0  0
   22.7352  133.2405    4.4002 H   0  0  0  0  0  0  0  0  0  0  0  0
   24.0492  132.3267    6.4162 H   0  0  0  0  0  0  0  0  0  0  0  0
   22.9217  131.8658    8.2072 H   0  0  0  0  0  0  0  0  0  0  0  0
   22.0701  133.1710    7.7197 H   0  0  0  0  0  0  0  0  0  0  0  0
   21.5192  131.6686    7.3943 H   0  0  0  0  0  0  0  0  0  0  0  0
   21.8687  130.7935    5.2922 H   0  0  0  0  0  0  0  0  0  0  0  0
   23.1702  130.1538    6.0429 H   0  0  0  0  0  0  0  0  0  0  0  0
   24.5484  131.4129    3.9760 H   0  0  0  0  0  0  0  0  0  0  0  0
  1  2  1  0  0  0  0
  2  3  1  0  0  0  0
  3  4  1  0  0  0  0
  3  5  1  0  0  0  0
  5  6  1  0  0  0  0
  6  7  1  0  0  0  0
  7  8  1  0  0  0  0
  8  9  1  0  0  0  0
  9 10  1  0  0  0  0
 10 11  2  0  0  0  0
 11 12  1  0  0  0  0
 12 13  2  0  0  0  0
 13 14  1  0  0  0  0
 14 15  2  0  0  0  0
  8 16  1  0  0  0  0
 16 17  2  0  0  0  0
 16 18  1  0  0  0  0
 18 19  1  0  0  0  0
 19 20  1  0  0  0  0
 20 21  1  0  0  0  0
 21 22  1  0  0  0  0
 22 23  1  0  0  0  0
 22 24  2  0  0  0  0
 22 25  2  0  0  0  0
 19 26  1  0  0  0  0
 26 27  2  0  0  0  0
 26 28  1  0  0  0  0
  5 29  1  0  0  0  0
 29 30  1  0  0  0  0
 30 31  1  0  0  0  0
 31 32  1  0  0  0  0
 31 33  1  0  0  0  0
 33 34  1  0  0  0  0
 15 10  1  0  0  0  0
  1 35  1  0  0  0  0
  1 36  1  0  0  0  0
  1 37  1  0  0  0  0
  2 38  1  0  0  0  0
  2 39  1  0  0  0  0
  3 40  1  0  0  0  0
  4 41  1  0  0  0  0
  4 42  1  0  0  0  0
  4 43  1  0  0  0  0
  5 44  1  0  0  0  0
  6 45  1  0  0  0  0
  6 46  1  0  0  0  0
  8 47  1  0  0  0  0
  9 48  1  0  0  0  0
  9 49  1  0  0  0  0
 11 50  1  0  0  0  0
 12 51  1  0  0  0  0
 13 52  1  0  0  0  0
 14 53  1  0  0  0  0
 15 54  1  0  0  0  0
 18 55  1  0  0  0  0
 19 56  1  0  0  0  0
 20 57  1  0  0  0  0
 20 58  1  0  0  0  0
 21 59  1  0  0  0  0
 21 60  1  0  0  0  0
 23 61  1  0  0  0  0
 23 62  1  0  0  0  0
 23 63  1  0  0  0  0
 29 64  1  0  0  0  0
 29 65  1  0  0  0  0
 30 66  1  0  0  0  0
 30 67  1  0  0  0  0
 31 68  1  0  0  0  0
 32 69  1  0  0  0  0
 32 70  1  0  0  0  0
 32 71  1  0  0  0  0
 33 72  1  0  0  0  0
 33 73  1  0  0  0  0
 34 74  1  0  0  0  0
M  CHG  3  28  -1  29   1  32   1
M  END
>  <docking-score>
-18.49

$$$$
1SA4_JAN_1
foFlexX   03192112253D 1   1.00000     0.00000     0
FlexX 4.5.0 fol007
 57 61  0  0  0  0            999 V2000
   14.3950  129.3246   -3.9019 C   0  0  0  0  0  0  0  0  0  0  0  0
   13.5670  130.3961   -3.3288 N   0  0  0  0  0  0  0  0  0  0  0  0
   12.2244  130.3197   -3.0986 C   0  0  0  0  0  0  0  0  0  0  0  0
   11.8404  131.4655   -2.5803 N   0  0  0  0  0  0  0  0  0  0  0  0
   12.9263  132.2876   -2.4722 C   0  0  0  0  0  0  0  0  0  0  0  0
   14.0195  131.6206   -2.9427 C   0  0  0  0  0  0  0  0  0  0  0  0
   15.4646  132.1473   -3.0134 C   0  0  2  0  0  0  0  0  0  0  0  0
   16.4033  131.0023   -2.9204 N   0  3  0  0  0  0  0  0  0  0  0  0
   15.7741  133.1005   -1.8312 C   0  0  0  0  0  0  0  0  0  0  0  0
   15.0400  134.2746   -1.6931 C   0  0  0  0  0  0  0  0  0  0  0  0
   15.3047  135.1403   -0.6370 C   0  0  0  0  0  0  0  0  0  0  0  0
   16.3073  134.8160    0.2702 C   0  0  0  0  0  0  0  0  0  0  0  0
   16.6586  135.9134    1.6271 Cl  0  0  0  0  0  0  0  0  0  0  0  0
   17.0418  133.6430    0.1339 C   0  0  0  0  0  0  0  0  0  0  0  0
   16.7762  132.7780   -0.9225 C   0  0  0  0  0  0  0  0  0  0  0  0
   15.6583  132.8185   -4.3573 C   0  0  0  0  0  0  0  0  0  0  0  0
   14.8899  132.4179   -5.4417 C   0  0  0  0  0  0  0  0  0  0  0  0
   15.1042  133.0639   -6.6519 C   0  0  0  0  0  0  0  0  0  0  0  0
   16.0528  134.0743   -6.7747 C   0  0  0  0  0  0  0  0  0  0  0  0
   16.8031  134.4485   -5.6687 C   0  0  0  0  0  0  0  0  0  0  0  0
   16.6125  133.8209   -4.4431 C   0  0  0  0  0  0  0  0  0  0  0  0
   17.7984  135.4992   -5.7998 C   0  0  0  0  0  0  0  0  0  0  0  0
   18.6112  135.9182   -4.6728 C   0  0  0  0  0  0  0  0  0  0  0  0
   18.1602  136.9453   -3.8505 C   0  0  0  0  0  0  0  0  0  0  0  0
   18.9456  137.3409   -2.7723 C   0  0  0  0  0  0  0  0  0  0  0  0
   20.1651  136.7246   -2.5123 C   0  0  0  0  0  0  0  0  0  0  0  0
   20.5960  135.6995   -3.3480 C   0  0  0  0  0  0  0  0  0  0  0  0
   22.1542  134.8989   -3.0329 Cl  0  0  0  0  0  0  0  0  0  0  0  0
   19.8276  135.2882   -4.4321 C   0  0  0  0  0  0  0  0  0  0  0  0
   18.0179  136.1231   -6.9430 C   0  0  0  0  0  0  0  0  0  0  0  0
   17.2405  135.7484   -8.1085 C   0  0  0  0  0  0  0  0  0  0  0  0
   17.4427  136.3254   -9.1650 O   0  0  0  0  0  0  0  0  0  0  0  0
   16.2803  134.7345   -7.9890 N   0  0  0  0  0  0  0  0  0  0  0  0
   15.5215  134.3898   -9.2031 C   0  0  0  0  0  0  0  0  0  0  0  0
   15.3438  129.6340   -3.9647 H   0  0  0  0  0  0  0  0  0  0  0  0
   14.3462  128.5159   -3.3156 H   0  0  0  0  0  0  0  0  0  0  0  0
   14.0580  129.0951   -4.8150 H   0  0  0  0  0  0  0  0  0  0  0  0
   11.6374  129.5330   -3.2898 H   0  0  0  0  0  0  0  0  0  0  0  0
   12.9207  133.2196   -2.1099 H   0  0  0  0  0  0  0  0  0  0  0  0
   17.2672  131.3110   -2.5227 H   0  0  0  0  0  0  0  0  0  0  0  0
   16.0050  130.2910   -2.3413 H   0  0  0  0  0  0  0  0  0  0  0  0
   16.5703  130.6331   -3.8346 H   0  0  0  0  0  0  0  0  0  0  0  0
   14.3221  134.4959   -2.3531 H   0  0  0  0  0  0  0  0  0  0  0  0
   14.7805  135.9854   -0.5316 H   0  0  0  0  0  0  0  0  0  0  0  0
   17.7595  133.4219    0.7941 H   0  0  0  0  0  0  0  0  0  0  0  0
   17.3004  131.9329   -1.0274 H   0  0  0  0  0  0  0  0  0  0  0  0
   14.2079  131.6918   -5.3546 H   0  0  0  0  0  0  0  0  0  0  0  0
   14.5658  132.7976   -7.4515 H   0  0  0  0  0  0  0  0  0  0  0  0
   17.1505  134.0858   -3.6428 H   0  0  0  0  0  0  0  0  0  0  0  0
   17.2845  137.3928   -4.0315 H   0  0  0  0  0  0  0  0  0  0  0  0
   18.6289  138.0785   -2.1761 H   0  0  0  0  0  0  0  0  0  0  0  0
   20.7241  137.0143   -1.7354 H   0  0  0  0  0  0  0  0  0  0  0  0
   20.1447  134.5511   -5.0289 H   0  0  0  0  0  0  0  0  0  0  0  0
   18.7095  136.8428   -7.0040 H   0  0  0  0  0  0  0  0  0  0  0  0
   14.8740  133.6568   -8.9946 H   0  0  0  0  0  0  0  0  0  0  0  0
   15.0219  135.1946   -9.5236 H   0  0  0  0  0  0  0  0  0  0  0  0
   16.1532  134.0841   -9.9154 H   0  0  0  0  0  0  0  0  0  0  0  0
  1  2  1  0  0  0  0
  2  3  1  0  0  0  0
  3  4  2  0  0  0  0
  4  5  1  0  0  0  0
  5  6  2  0  0  0  0
  6  7  1  0  0  0  0
  7  8  1  0  0  0  0
  7  9  1  0  0  0  0
  9 10  2  0  0  0  0
 10 11  1  0  0  0  0
 11 12  2  0  0  0  0
 12 13  1  0  0  0  0
 12 14  1  0  0  0  0
 14 15  2  0  0  0  0
  7 16  1  0  0  0  0
 16 17  2  0  0  0  0
 17 18  1  0  0  0  0
 18 19  2  0  0  0  0
 19 20  1  0  0  0  0
 20 21  2  0  0  0  0
 20 22  1  0  0  0  0
 22 23  1  0  0  0  0
 23 24  2  0  0  0  0
 24 25  1  0  0  0  0
 25 26  2  0  0  0  0
 26 27  1  0  0  0  0
 27 28  1  0  0  0  0
 27 29  2  0  0  0  0
 22 30  2  0  0  0  0
 30 31  1  0  0  0  0
 31 32  2  0  0  0  0
 31 33  1  0  0  0  0
 33 34  1  0  0  0  0
  6  2  1  0  0  0  0
 15  9  1  0  0  0  0
 21 16  1  0  0  0  0
 29 23  1  0  0  0  0
 33 19  1  0  0  0  0
  1 35  1  0  0  0  0
  1 36  1  0  0  0  0
  1 37  1  0  0  0  0
  3 38  1  0  0  0  0
  5 39  1  0  0  0  0
  8 40  1  0  0  0  0
  8 41  1  0  0  0  0
  8 42  1  0  0  0  0
 10 43  1  0  0  0  0
 11 44  1  0  0  0  0
 14 45  1  0  0  0  0
 15 46  1  0  0  0  0
 17 47  1  0  0  0  0
 18 48  1  0  0  0  0
 21 49  1  0  0  0  0
 24 50  1  0  0  0  0
 25 51  1  0  0  0  0
 26 52  1  0  0  0  0
 29 53  1  0  0  0  0
 30 54  1  0  0  0  0
 34 55  1  0  0  0  0
 34 56  1  0  0  0  0
 34 57  1  0  0  0  0
M  CHG  1   8   1
M  END
>  <docking-score>
-20.19

$$$$
1SA4_JAN_2
foFlexX   03192112253D 1   1.00000     0.00000     0
FlexX 4.5.0 fol007
 57 61  0  0  0  0            999 V2000
   14.8460  130.0854   -1.8053 C   0  0  0  0  0  0  0  0  0  0  0  0
   13.7528  130.9983   -2.1707 N   0  0  0  0  0  0  0  0  0  0  0  0
   12.4329  130.6608   -2.2442 C   0  0  0  0  0  0  0  0  0  0  0  0
   11.7630  131.7357   -2.5976 N   0  0  0  0  0  0  0  0  0  0  0  0
   12.6403  132.7712   -2.7548 C   0  0  0  0  0  0  0  0  0  0  0  0
   13.8978  132.3142   -2.4879 C   0  0  0  0  0  0  0  0  0  0  0  0
   15.2055  133.1258   -2.5316 C   0  0  2  0  0  0  0  0  0  0  0  0
   16.3441  132.2285   -2.2167 N   0  3  0  0  0  0  0  0  0  0  0  0
   15.1995  134.2592   -1.4745 C   0  0  0  0  0  0  0  0  0  0  0  0
   14.2320  135.2565   -1.5510 C   0  0  0  0  0  0  0  0  0  0  0  0
   14.2122  136.2802   -0.6095 C   0  0  0  0  0  0  0  0  0  0  0  0
   15.1679  136.2905    0.4005 C   0  0  0  0  0  0  0  0  0  0  0  0
   15.1565  137.5937    1.6131 Cl  0  0  0  0  0  0  0  0  0  0  0  0
   16.1353  135.2946    0.4787 C   0  0  0  0  0  0  0  0  0  0  0  0
   16.1541  134.2714   -0.4633 C   0  0  0  0  0  0  0  0  0  0  0  0
   15.3869  133.6552   -3.9391 C   0  0  0  0  0  0  0  0  0  0  0  0
   14.4058  133.4204   -4.8925 C   0  0  0  0  0  0  0  0  0  0  0  0
   14.6179  133.9266   -6.1679 C   0  0  0  0  0  0  0  0  0  0  0  0
   15.7697  134.6420   -6.4800 C   0  0  0  0  0  0  0  0  0  0  0  0
   16.7296  134.8573   -5.5010 C   0  0  0  0  0  0  0  0  0  0  0  0
   16.5469  134.3632   -4.2145 C   0  0  0  0  0  0  0  0  0  0  0  0
   17.9354  135.5987   -5.8299 C   0  0  0  0  0  0  0  0  0  0  0  0
   18.9694  135.8416   -4.8408 C   0  0  0  0  0  0  0  0  0  0  0  0
   20.0015  134.9213   -4.6924 C   0  0  0  0  0  0  0  0  0  0  0  0
   20.9886  135.1617   -3.7418 C   0  0  0  0  0  0  0  0  0  0  0  0
   20.9527  136.3025   -2.9469 C   0  0  0  0  0  0  0  0  0  0  0  0
   19.9109  137.2092   -3.1129 C   0  0  0  0  0  0  0  0  0  0  0  0
   19.8461  138.6746   -2.1047 Cl  0  0  0  0  0  0  0  0  0  0  0  0
   18.9129  136.9888   -4.0565 C   0  0  0  0  0  0  0  0  0  0  0  0
   18.1557  136.0855   -7.0377 C   0  0  0  0  0  0  0  0  0  0  0  0
   17.1619  135.8740   -8.0725 C   0  0  0  0  0  0  0  0  0  0  0  0
   17.3650  136.3245   -9.1886 O   0  0  0  0  0  0  0  0  0  0  0  0
   15.9977  135.1581   -7.7621 N   0  0  0  0  0  0  0  0  0  0  0  0
   15.0231  134.9683   -8.8495 C   0  0  0  0  0  0  0  0  0  0  0  0
   15.7146  130.5805   -1.8254 H   0  0  0  0  0  0  0  0  0  0  0  0
   14.6877  129.7273   -0.8851 H   0  0  0  0  0  0  0  0  0  0  0  0
   14.8793  129.3274   -2.4567 H   0  0  0  0  0  0  0  0  0  0  0  0
   12.0444  129.7576   -2.0618 H   0  0  0  0  0  0  0  0  0  0  0  0
   12.4014  133.7053   -3.0204 H   0  0  0  0  0  0  0  0  0  0  0  0
   17.0848  132.7611   -1.8073 H   0  0  0  0  0  0  0  0  0  0  0  0
   16.0451  131.5238   -1.5732 H   0  0  0  0  0  0  0  0  0  0  0  0
   16.6698  131.7958   -3.0573 H   0  0  0  0  0  0  0  0  0  0  0  0
   13.5509  135.2372   -2.2830 H   0  0  0  0  0  0  0  0  0  0  0  0
   13.5194  136.9997   -0.6583 H   0  0  0  0  0  0  0  0  0  0  0  0
   16.8161  135.3140    1.2109 H   0  0  0  0  0  0  0  0  0  0  0  0
   16.8469  133.5519   -0.4139 H   0  0  0  0  0  0  0  0  0  0  0  0
   13.5776  132.9063   -4.6692 H   0  0  0  0  0  0  0  0  0  0  0  0
   13.9290  133.7739   -6.8764 H   0  0  0  0  0  0  0  0  0  0  0  0
   17.2351  134.5147   -3.5050 H   0  0  0  0  0  0  0  0  0  0  0  0
   20.0337  134.0989   -5.2604 H   0  0  0  0  0  0  0  0  0  0  0  0
   21.7344  134.5051   -3.6285 H   0  0  0  0  0  0  0  0  0  0  0  0
   21.6657  136.4685   -2.2657 H   0  0  0  0  0  0  0  0  0  0  0  0
   18.1666  137.6449   -4.1692 H   0  0  0  0  0  0  0  0  0  0  0  0
   18.9948  136.5921   -7.2356 H   0  0  0  0  0  0  0  0  0  0  0  0
   14.2422  134.4442   -8.5095 H   0  0  0  0  0  0  0  0  0  0  0  0
   14.7095  135.8601   -9.1756 H   0  0  0  0  0  0  0  0  0  0  0  0
   15.4557  134.4715   -9.6019 H   0  0  0  0  0  0  0  0  0  0  0  0
  1  2  1  0  0  0  0
  2  3  1  0  0  0  0
  3  4  2  0  0  0  0
  4  5  1  0  0  0  0
  5  6  2  0  0  0  0
  6  7  1  0  0  0  0
  7  8  1  0  0  0  0
  7  9  1  0  0  0  0
  9 10  2  0  0  0  0
 10 11  1  0  0  0  0
 11 12  2  0  0  0  0
 12 13  1  0  0  0  0
 12 14  1  0  0  0  0
 14 15  2  0  0  0  0
  7 16  1  0  0  0  0
 16 17  2  0  0  0  0
 17 18  1  0  0  0  0
 18 19  2  0  0  0  0
 19 20  1  0  0  0  0
 20 21  2  0  0  0  0
 20 22  1  0  0  0  0
 22 23  1  0  0  0  0
 23 24  2  0  0  0  0
 24 25  1  0  0  0  0
 25 26  2  0  0  0  0
 26 27  1  0  0  0  0
 27 28  1  0  0  0  0
 27 29  2  0  0  0  0
 22 30  2  0  0  0  0
 30 31  1  0  0  0  0
 31 32  2  0  0  0  0
 31 33  1  0  0  0  0
 33 34  1  0  0  0  0
  6  2  1  0  0  0  0
 15  9  1  0  0  0  0
 21 16  1  0  0  0  0
 29 23  1  0  0  0  0
 33 19  1  0  0  0  0
  1 35  1  0  0  0  0
  1 36  1  0  0  0  0
  1 37  1  0  0  0  0
  3 38  1  0  0  0  0
  5 39  1  0  0  0  0
  8 40  1  0  0  0  0
  8 41  1  0  0  0  0
  8 42  1  0  0  0  0
 10 43  1  0  0  0  0
 11 44  1  0  0  0  0
 14 45  1  0  0  0  0
 15 46  1  0  0  0  0
 17 47  1  0  0  0  0
 18 48  1  0  0  0  0
 21 49  1  0  0  0  0
 24 50  1  0  0  0  0
 25 51  1  0  0  0  0
 26 52  1  0  0  0  0
 29 53  1  0  0  0  0
 30 54  1  0  0  0  0
 34 55  1  0  0  0  0
 34 56  1  0  0  0  0
 34 57  1  0  0  0  0
M  CHG  1   8   1
M  END
>  <docking-score>
-20.16

$$$$
1SA4_JAN_3
foFlexX   03192112253D 1   1.00000     0.00000     0
FlexX 4.5.0 fol007
 57 61  0  0  0  0            999 V2000
   14.4133  129.3290   -3.8690 C   0  0  0  0  0  0  0  0  0  0  0  0
   13.5630  130.3931   -3.3152 N   0  0  0  0  0  0  0  0  0  0  0  0
   12.2192  130.2986   -3.0991 C   0  0  0  0  0  0  0  0  0  0  0  0
   11.8123  131.4433   -2.5959 N   0  0  0  0  0  0  0  0  0  0  0  0
   12.8845  132.2826   -2.4836 C   0  0  0  0  0  0  0  0  0  0  0  0
   13.9928  131.6278   -2.9357 C   0  0  0  0  0  0  0  0  0  0  0  0
   15.4305  132.1756   -2.9954 C   0  0  2  0  0  0  0  0  0  0  0  0
   16.3851  131.0458   -2.8813 N   0  3  0  0  0  0  0  0  0  0  0  0
   15.7125  133.1442   -1.8189 C   0  0  0  0  0  0  0  0  0  0  0  0
   14.9594  134.3083   -1.6999 C   0  0  0  0  0  0  0  0  0  0  0  0
   15.1992  135.1877   -0.6492 C   0  0  0  0  0  0  0  0  0  0  0  0
   16.1964  134.8869    0.2721 C   0  0  0  0  0  0  0  0  0  0  0  0
   16.5161  136.0019    1.6224 Cl  0  0  0  0  0  0  0  0  0  0  0  0
   16.9498  133.7239    0.1549 C   0  0  0  0  0  0  0  0  0  0  0  0
   16.7091  132.8453   -0.8961 C   0  0  0  0  0  0  0  0  0  0  0  0
   15.6292  132.8372   -4.3433 C   0  0  0  0  0  0  0  0  0  0  0  0
   14.8789  132.4151   -5.4323 C   0  0  0  0  0  0  0  0  0  0  0  0
   15.0970  133.0531   -6.6461 C   0  0  0  0  0  0  0  0  0  0  0  0
   16.0317  134.0764   -6.7679 C   0  0  0  0  0  0  0  0  0  0  0  0
   16.7639  134.4722   -5.6573 C   0  0  0  0  0  0  0  0  0  0  0  0
   16.5691  133.8530   -4.4280 C   0  0  0  0  0  0  0  0  0  0  0  0
   17.7448  135.5365   -5.7873 C   0  0  0  0  0  0  0  0  0  0  0  0
   18.5386  135.9781   -4.6553 C   0  0  0  0  0  0  0  0  0  0  0  0
   19.3690  135.0692   -4.0080 C   0  0  0  0  0  0  0  0  0  0  0  0
   20.1265  135.5008   -2.9237 C   0  0  0  0  0  0  0  0  0  0  0  0
   20.0613  136.8193   -2.4859 C   0  0  0  0  0  0  0  0  0  0  0  0
   19.2240  137.7108   -3.1485 C   0  0  0  0  0  0  0  0  0  0  0  0
   19.1254  139.4022   -2.6030 Cl  0  0  0  0  0  0  0  0  0  0  0  0
   18.4571  137.3012   -4.2344 C   0  0  0  0  0  0  0  0  0  0  0  0
   17.9677  136.1530   -6.9338 C   0  0  0  0  0  0  0  0  0  0  0  0
   17.2090  135.7559   -8.1042 C   0  0  0  0  0  0  0  0  0  0  0  0
   17.4144  136.3261   -9.1637 O   0  0  0  0  0  0  0  0  0  0  0  0
   16.2629  134.7288   -7.9858 N   0  0  0  0  0  0  0  0  0  0  0  0
   15.5229  134.3615   -9.2048 C   0  0  0  0  0  0  0  0  0  0  0  0
   15.3580  129.6521   -3.9243 H   0  0  0  0  0  0  0  0  0  0  0  0
   14.3701  128.5251   -3.2758 H   0  0  0  0  0  0  0  0  0  0  0  0
   14.0900  129.0861   -4.7836 H   0  0  0  0  0  0  0  0  0  0  0  0
   11.6462  129.5015   -3.2894 H   0  0  0  0  0  0  0  0  0  0  0  0
   12.8609  133.2178   -2.1301 H   0  0  0  0  0  0  0  0  0  0  0  0
   17.2399  131.3712   -2.4769 H   0  0  0  0  0  0  0  0  0  0  0  0
   15.9911  130.3339   -2.2999 H   0  0  0  0  0  0  0  0  0  0  0  0
   16.5678  130.6707   -3.7901 H   0  0  0  0  0  0  0  0  0  0  0  0
   14.2456  134.5127   -2.3698 H   0  0  0  0  0  0  0  0  0  0  0  0
   14.6613  136.0257   -0.5574 H   0  0  0  0  0  0  0  0  0  0  0  0
   17.6634  133.5198    0.8251 H   0  0  0  0  0  0  0  0  0  0  0  0
   17.2470  132.0072   -0.9873 H   0  0  0  0  0  0  0  0  0  0  0  0
   14.2070  131.6796   -5.3459 H   0  0  0  0  0  0  0  0  0  0  0  0
   14.5717  132.7713   -7.4490 H   0  0  0  0  0  0  0  0  0  0  0  0
   17.0941  134.1334   -3.6243 H   0  0  0  0  0  0  0  0  0  0  0  0
   19.4208  134.1197   -4.3174 H   0  0  0  0  0  0  0  0  0  0  0  0
   20.7261  134.8539   -2.4526 H   0  0  0  0  0  0  0  0  0  0  0  0
   20.6087  137.1222   -1.7058 H   0  0  0  0  0  0  0  0  0  0  0  0
   17.8568  137.9478   -4.7050 H   0  0  0  0  0  0  0  0  0  0  0  0
   18.6491  136.8825   -6.9939 H   0  0  0  0  0  0  0  0  0  0  0  0
   14.8843  133.6208   -8.9966 H   0  0  0  0  0  0  0  0  0  0  0  0
   15.0149  135.1557   -9.5384 H   0  0  0  0  0  0  0  0  0  0  0  0
   16.1670  134.0588   -9.9073 H   0  0  0  0  0  0  0  0  0  0  0  0
  1  2  1  0  0  0  0
  2  3  1  0  0  0  0
  3  4  2  0  0  0  0
  4  5  1  0  0  0  0
  5  6  2  0  0  0  0
  6  7  1  0  0  0  0
  7  8  1  0  0  0  0
  7  9  1  0  0  0  0
  9 10  2  0  0  0  0
 10 11  1  0  0  0  0
 11 12  2  0  0  0  0
 12 13  1  0  0  0  0
 12 14  1  0  0  0  0
 14 15  2  0  0  0  0
  7 16  1  0  0  0  0
 16 17  2  0  0  0  0
 17 18  1  0  0  0  0
 18 19  2  0  0  0  0
 19 20  1  0  0  0  0
 20 21  2  0  0  0  0
 20 22  1  0  0  0  0
 22 23  1  0  0  0  0
 23 24  2  0  0  0  0
 24 25  1  0  0  0  0
 25 26  2  0  0  0  0
 26 27  1  0  0  0  0
 27 28  1  0  0  0  0
 27 29  2  0  0  0  0
 22 30  2  0  0  0  0
 30 31  1  0  0  0  0
 31 32  2  0  0  0  0
 31 33  1  0  0  0  0
 33 34  1  0  0  0  0
  6  2  1  0  0  0  0
 15  9  1  0  0  0  0
 21 16  1  0  0  0  0
 29 23  1  0  0  0  0
 33 19  1  0  0  0  0
  1 35  1  0  0  0  0
  1 36  1  0  0  0  0
  1 37  1  0  0  0  0
  3 38  1  0  0  0  0
  5 39  1  0  0  0  0
  8 40  1  0  0  0  0
  8 41  1  0  0  0  0
  8 42  1  0  0  0  0
 10 43  1  0  0  0  0
 11 44  1  0  0  0  0
 14 45  1  0  0  0  0
 15 46  1  0  0  0  0
 17 47  1  0  0  0  0
 18 48  1  0  0  0  0
 21 49  1  0  0  0  0
 24 50  1  0  0  0  0
 25 51  1  0  0  0  0
 26 52  1  0  0  0  0
 29 53  1  0  0  0  0
 30 54  1  0  0  0  0
 34 55  1  0  0  0  0
 34 56  1  0  0  0  0
 34 57  1  0  0  0  0
M  CHG  1   8   1
M  END
>  <docking-score>
-20.04

$$$$
1MZC_BNE_1
foFlexX   03192112253D 1   1.00000     0.00000     0
FlexX 4.5.0 fol007
 69 72  0  0  0  0            999 V2000
   15.9341  132.4471   -2.6826 C   0  0  0  0  0  0  0  0  0  0  0  0
   16.9419  132.7670   -1.5675 C   0  0  0  0  0  0  0  0  0  0  0  0
   18.0632  131.7608   -1.3579 C   0  0  2  0  0  0  0  0  0  0  0  0
   18.4834  131.7667    0.1022 C   0  0  0  0  0  0  0  0  0  0  0  0
   18.9535  130.5992    0.6947 C   0  0  0  0  0  0  0  0  0  0  0  0
   19.3326  130.6279    2.0329 C   0  0  0  0  0  0  0  0  0  0  0  0
   19.2470  131.7999    2.7771 C   0  0  0  0  0  0  0  0  0  0  0  0
   18.7739  132.9560    2.1651 C   0  0  0  0  0  0  0  0  0  0  0  0
   18.6839  134.1426    2.9087 O   0  0  0  0  0  0  0  0  0  0  0  0
   19.7278  134.7580    3.5036 C   0  0  0  0  0  0  0  0  0  0  0  0
   20.6360  133.9873    4.2219 C   0  0  0  0  0  0  0  0  0  0  0  0
   21.7140  134.6147    4.8377 C   0  0  0  0  0  0  0  0  0  0  0  0
   22.7291  133.7685    5.6385 C   0  0  1  0  0  0  0  0  0  0  0  0
   23.7715  134.7539    6.2222 C   0  0  0  0  0  0  0  0  0  0  0  0
   22.0839  133.0452    6.7517 N   0  3  0  0  0  0  0  0  0  0  0  0
   23.3734  132.7303    4.7047 C   0  0  0  0  0  0  0  0  0  0  0  0
   23.3119  131.3758    4.8534 C   0  0  0  0  0  0  0  0  0  0  0  0
   24.0081  130.8303    3.8158 N   0  0  0  0  0  0  0  0  0  0  0  0
   24.4760  131.8044    3.0649 C   0  0  0  0  0  0  0  0  0  0  0  0
   24.0944  133.0020    3.5849 N   0  0  0  0  0  0  0  0  0  0  0  0
   24.4077  134.3344    3.0474 C   0  0  0  0  0  0  0  0  0  0  0  0
   21.8911  135.9913    4.7436 C   0  0  0  0  0  0  0  0  0  0  0  0
   20.9767  136.7519    4.0226 C   0  0  0  0  0  0  0  0  0  0  0  0
   19.8949  136.1352    3.4023 C   0  0  0  0  0  0  0  0  0  0  0  0
   18.8955  136.9663    2.6143 C   0  0  0  0  0  0  0  0  0  0  0  0
   18.1340  137.5985    2.0145 N   0  0  0  0  0  0  0  0  0  0  0  0
   18.3897  132.9497    0.8283 C   0  0  0  0  0  0  0  0  0  0  0  0
   19.2915  132.3052   -2.0963 C   0  0  0  0  0  0  0  0  0  0  0  0
   19.2798  132.3130   -3.6255 C   0  0  0  0  0  0  0  0  0  0  0  0
   19.3942  130.9589   -4.3325 C   0  0  0  0  0  0  0  0  0  0  0  0
   18.1875  130.0116   -4.2541 C   0  0  0  0  0  0  0  0  0  0  0  0
   17.5976  129.6288   -2.9430 N   0  0  0  0  0  0  0  0  0  0  0  0
   16.9833  128.2921   -2.9258 C   0  0  0  0  0  0  0  0  0  0  0  0
   17.5365  130.3552   -1.7176 C   0  0  0  0  0  0  0  0  0  0  0  0
   16.9843  129.7679   -0.8001 O   0  0  0  0  0  0  0  0  0  0  0  0
   15.4857  131.5750   -2.4866 H   0  0  0  0  0  0  0  0  0  0  0  0
   15.2469  133.1722   -2.7290 H   0  0  0  0  0  0  0  0  0  0  0  0
   16.4137  132.3860   -3.5580 H   0  0  0  0  0  0  0  0  0  0  0  0
   16.4333  132.8384   -0.7095 H   0  0  0  0  0  0  0  0  0  0  0  0
   17.3613  133.6494   -1.7808 H   0  0  0  0  0  0  0  0  0  0  0  0
   19.0180  129.7523    0.1668 H   0  0  0  0  0  0  0  0  0  0  0  0
   19.6718  129.7931    2.4666 H   0  0  0  0  0  0  0  0  0  0  0  0
   19.5217  131.8112    3.7386 H   0  0  0  0  0  0  0  0  0  0  0  0
   20.5158  132.9972    4.2945 H   0  0  0  0  0  0  0  0  0  0  0  0
   24.4592  134.2441    6.7391 H   0  0  0  0  0  0  0  0  0  0  0  0
   24.2154  135.2501    5.4761 H   0  0  0  0  0  0  0  0  0  0  0  0
   23.3129  135.4038    6.8284 H   0  0  0  0  0  0  0  0  0  0  0  0
   21.3821  132.4322    6.3886 H   0  0  0  0  0  0  0  0  0  0  0  0
   22.7706  132.5108    7.2445 H   0  0  0  0  0  0  0  0  0  0  0  0
   21.6618  133.7024    7.3761 H   0  0  0  0  0  0  0  0  0  0  0  0
   22.8451  130.8778    5.5841 H   0  0  0  0  0  0  0  0  0  0  0  0
   25.0271  131.6830    2.2394 H   0  0  0  0  0  0  0  0  0  0  0  0
   24.0051  135.0348    3.6369 H   0  0  0  0  0  0  0  0  0  0  0  0
   25.3998  134.4560    3.0151 H   0  0  0  0  0  0  0  0  0  0  0  0
   24.0313  134.4187    2.1248 H   0  0  0  0  0  0  0  0  0  0  0  0
   22.6701  136.4307    5.1909 H   0  0  0  0  0  0  0  0  0  0  0  0
   21.0968  137.7420    3.9501 H   0  0  0  0  0  0  0  0  0  0  0  0
   18.0506  133.7846    0.3948 H   0  0  0  0  0  0  0  0  0  0  0  0
   20.0759  131.7551   -1.8099 H   0  0  0  0  0  0  0  0  0  0  0  0
   19.4205  133.2507   -1.7973 H   0  0  0  0  0  0  0  0  0  0  0  0
   20.0475  132.8771   -3.9295 H   0  0  0  0  0  0  0  0  0  0  0  0
   18.4209  132.7335   -3.9178 H   0  0  0  0  0  0  0  0  0  0  0  0
   19.5697  131.1405   -5.3001 H   0  0  0  0  0  0  0  0  0  0  0  0
   20.1771  130.4796   -3.9359 H   0  0  0  0  0  0  0  0  0  0  0  0
   17.4542  130.4411   -4.7812 H   0  0  0  0  0  0  0  0  0  0  0  0
   18.4645  129.1607   -4.7005 H   0  0  0  0  0  0  0  0  0  0  0  0
   16.6091  128.1089   -2.0167 H   0  0  0  0  0  0  0  0  0  0  0  0
   16.2482  128.2543   -3.6027 H   0  0  0  0  0  0  0  0  0  0  0  0
   17.6751  127.6045   -3.1462 H   0  0  0  0  0  0  0  0  0  0  0  0
  1  2  1  0  0  0  0
  2  3  1  0  0  0  0
  3  4  1  0  0  0  0
  4  5  2  0  0  0  0
  5  6  1  0  0  0  0
  6  7  2  0  0  0  0
  7  8  1  0  0  0  0
  8  9  1  0  0  0  0
  9 10  1  0  0  0  0
 10 11  2  0  0  0  0
 11 12  1  0  0  0  0
 12 13  1  0  0  0  0
 13 14  1  0  0  0  0
 13 15  1  0  0  0  0
 13 16  1  0  0  0  0
 16 17  2  0  0  0  0
 17 18  1  0  0  0  0
 18 19  2  0  0  0  0
 19 20  1  0  0  0  0
 20 21  1  0  0  0  0
 12 22  2  0  0  0  0
 22 23  1  0  0  0  0
 23 24  2  0  0  0  0
 24 25  1  0  0  0  0
 25 26  3  0  0  0  0
  8 27  2  0  0  0  0
  3 28  1  0  0  0  0
 28 29  1  0  0  0  0
 29 30  1  0  0  0  0
 30 31  1  0  0  0  0
 31 32  1  0  0  0  0
 32 33  1  0  0  0  0
 32 34  1  0  0  0  0
 34 35  2  0  0  0  0
 34  3  1  0  0  0  0
 27  4  1  0  0  0  0
 24 10  1  0  0  0  0
 20 16  1  0  0  0  0
  1 36  1  0  0  0  0
  1 37  1  0  0  0  0
  1 38  1  0  0  0  0
  2 39  1  0  0  0  0
  2 40  1  0  0  0  0
  5 41  1  0  0  0  0
  6 42  1  0  0  0  0
  7 43  1  0  0  0  0
 11 44  1  0  0  0  0
 14 45  1  0  0  0  0
 14 46  1  0  0  0  0
 14 47  1  0  0  0  0
 15 48  1  0  0  0  0
 15 49  1  0  0  0  0
 15 50  1  0  0  0  0
 17 51  1  0  0  0  0
 19 52  1  0  0  0  0
 21 53  1  0  0  0  0
 21 54  1  0  0  0  0
 21 55  1  0  0  0  0
 22 56  1  0  0  0  0
 23 57  1  0  0  0  0
 27 58  1  0  0  0  0
 28 59  1  0  0  0  0
 28 60  1  0  0  0  0
 29 61  1  0  0  0  0
 29 62  1  0  0  0  0
 30 63  1  0  0  0  0
 30 64  1  0  0  0  0
 31 65  1  0  0  0  0
 31 66  1  0  0  0  0
 33 67  1  0  0  0  0
 33 68  1  0  0  0  0
 33 69  1  0  0  0  0
M  CHG  1  15   1
M  END
>  <docking-score>
-23.12

$$$$
1MZC_BNE_2
foFlexX   03192112253D 1   1.00000     0.00000     0
FlexX 4.5.0 fol007
 69 72  0  0  0  0            999 V2000
   17.3027  134.4255   -1.7636 C   0  0  0  0  0  0  0  0  0  0  0  0
   16.8846  132.9756   -1.4727 C   0  0  0  0  0  0  0  0  0  0  0  0
   18.0067  131.9552   -1.3650 C   0  0  2  0  0  0  0  0  0  0  0  0
   18.4228  131.9247    0.0961 C   0  0  0  0  0  0  0  0  0  0  0  0
   18.8459  130.7317    0.6732 C   0  0  0  0  0  0  0  0  0  0  0  0
   19.2221  130.7271    2.0125 C   0  0  0  0  0  0  0  0  0  0  0  0
   19.1796  131.8911    2.7728 C   0  0  0  0  0  0  0  0  0  0  0  0
   18.7532  133.0730    2.1760 C   0  0  0  0  0  0  0  0  0  0  0  0
   18.7069  134.2517    2.9360 O   0  0  0  0  0  0  0  0  0  0  0  0
   19.7721  134.8181    3.5418 C   0  0  0  0  0  0  0  0  0  0  0  0
   20.6479  134.0030    4.2513 C   0  0  0  0  0  0  0  0  0  0  0  0
   21.7475  134.5796    4.8783 C   0  0  0  0  0  0  0  0  0  0  0  0
   22.7270  133.6839    5.6694 C   0  0  1  0  0  0  0  0  0  0  0  0
   23.8050  134.6201    6.2692 C   0  0  0  0  0  0  0  0  0  0  0  0
   22.0513  132.9705    6.7708 N   0  3  0  0  0  0  0  0  0  0  0  0
   23.3334  132.6347    4.7225 C   0  0  0  0  0  0  0  0  0  0  0  0
   23.2193  131.2816    4.8521 C   0  0  0  0  0  0  0  0  0  0  0  0
   23.8969  130.7242    3.8085 N   0  0  0  0  0  0  0  0  0  0  0  0
   24.4041  131.6899    3.0725 C   0  0  0  0  0  0  0  0  0  0  0  0
   24.0675  132.8939    3.6083 N   0  0  0  0  0  0  0  0  0  0  0  0
   24.4335  134.2206    3.0903 C   0  0  0  0  0  0  0  0  0  0  0  0
   21.9779  135.9496    4.8038 C   0  0  0  0  0  0  0  0  0  0  0  0
   21.0954  136.7548    4.0915 C   0  0  0  0  0  0  0  0  0  0  0  0
   19.9924  136.1891    3.4602 C   0  0  0  0  0  0  0  0  0  0  0  0
   19.0280  137.0690    2.6817 C   0  0  0  0  0  0  0  0  0  0  0  0
   18.2931  137.7384    2.0891 N   0  0  0  0  0  0  0  0  0  0  0  0
   18.3728  133.1002    0.8384 C   0  0  0  0  0  0  0  0  0  0  0  0
   19.1230  132.5104   -2.2578 C   0  0  0  0  0  0  0  0  0  0  0  0
   20.4778  131.7947   -2.3031 C   0  0  0  0  0  0  0  0  0  0  0  0
   20.5724  130.3349   -1.8495 C   0  0  0  0  0  0  0  0  0  0  0  0
   19.5936  129.3244   -2.4518 C   0  0  0  0  0  0  0  0  0  0  0  0
   18.1374  129.4311   -2.1913 N   0  0  0  0  0  0  0  0  0  0  0  0
   17.3349  128.2259   -2.4501 C   0  0  0  0  0  0  0  0  0  0  0  0
   17.4351  130.5698   -1.7113 C   0  0  0  0  0  0  0  0  0  0  0  0
   16.2306  130.4272   -1.5554 O   0  0  0  0  0  0  0  0  0  0  0  0
   17.7911  134.4630   -2.6354 H   0  0  0  0  0  0  0  0  0  0  0  0
   16.4884  135.0038   -1.8124 H   0  0  0  0  0  0  0  0  0  0  0  0
   17.9008  134.7530   -1.0321 H   0  0  0  0  0  0  0  0  0  0  0  0
   16.2758  132.6812   -2.2094 H   0  0  0  0  0  0  0  0  0  0  0  0
   16.3856  132.9712   -0.6061 H   0  0  0  0  0  0  0  0  0  0  0  0
   18.8792  129.8904    0.1336 H   0  0  0  0  0  0  0  0  0  0  0  0
   19.5276  129.8739    2.4351 H   0  0  0  0  0  0  0  0  0  0  0  0
   19.4519  131.8784    3.7350 H   0  0  0  0  0  0  0  0  0  0  0  0
   20.4894  133.0174    4.3097 H   0  0  0  0  0  0  0  0  0  0  0  0
   24.4711  134.0770    6.7805 H   0  0  0  0  0  0  0  0  0  0  0  0
   24.2698  135.1092    5.5312 H   0  0  0  0  0  0  0  0  0  0  0  0
   23.3701  135.2787    6.8834 H   0  0  0  0  0  0  0  0  0  0  0  0
   21.3275  132.3902    6.3976 H   0  0  0  0  0  0  0  0  0  0  0  0
   22.7156  132.4033    7.2577 H   0  0  0  0  0  0  0  0  0  0  0  0
   21.6531  133.6348    7.4035 H   0  0  0  0  0  0  0  0  0  0  0  0
   22.7316  130.7919    5.5748 H   0  0  0  0  0  0  0  0  0  0  0  0
   24.9524  131.5587    2.2465 H   0  0  0  0  0  0  0  0  0  0  0  0
   24.0565  134.9277    3.6886 H   0  0  0  0  0  0  0  0  0  0  0  0
   25.4295  134.3043    3.0619 H   0  0  0  0  0  0  0  0  0  0  0  0
   24.0631  134.3322    2.1681 H   0  0  0  0  0  0  0  0  0  0  0  0
   22.7720  136.3524    5.2590 H   0  0  0  0  0  0  0  0  0  0  0  0
   21.2538  137.7405    4.0332 H   0  0  0  0  0  0  0  0  0  0  0  0
   18.0673  133.9535    0.4159 H   0  0  0  0  0  0  0  0  0  0  0  0
   19.2986  133.4473   -1.9556 H   0  0  0  0  0  0  0  0  0  0  0  0
   18.7688  132.5227   -3.1929 H   0  0  0  0  0  0  0  0  0  0  0  0
   21.1041  132.3200   -1.7271 H   0  0  0  0  0  0  0  0  0  0  0  0
   20.7922  131.8259   -3.2519 H   0  0  0  0  0  0  0  0  0  0  0  0
   21.4959  130.0171   -2.0642 H   0  0  0  0  0  0  0  0  0  0  0  0
   20.4379  130.3232   -0.8586 H   0  0  0  0  0  0  0  0  0  0  0  0
   19.7102  129.3706   -3.4440 H   0  0  0  0  0  0  0  0  0  0  0  0
   19.8767  128.4228   -2.1246 H   0  0  0  0  0  0  0  0  0  0  0  0
   16.3760  128.4116   -2.2356 H   0  0  0  0  0  0  0  0  0  0  0  0
   17.4177  127.9708   -3.4134 H   0  0  0  0  0  0  0  0  0  0  0  0
   17.6654  127.4760   -1.8771 H   0  0  0  0  0  0  0  0  0  0  0  0
  1  2  1  0  0  0  0
  2  3  1  0  0  0  0
  3  4  1  0  0  0  0
  4  5  2  0  0  0  0
  5  6  1  0  0  0  0
  6  7  2  0  0  0  0
  7  8  1  0  0  0  0
  8  9  1  0  0  0  0
  9 10  1  0  0  0  0
 10 11  2  0  0  0  0
 11 12  1  0  0  0  0
 12 13  1  0  0  0  0
 13 14  1  0  0  0  0
 13 15  1  0  0  0  0
 13 16  1  0  0  0  0
 16 17  2  0  0  0  0
 17 18  1  0  0  0  0
 18 19  2  0  0  0  0
 19 20  1  0  0  0  0
 20 21  1  0  0  0  0
 12 22  2  0  0  0  0
 22 23  1  0  0  0  0
 23 24  2  0  0  0  0
 24 25  1  0  0  0  0
 25 26  3  0  0  0  0
  8 27  2  0  0  0  0
  3 28  1  0  0  0  0
 28 29  1  0  0  0  0
 29 30  1  0  0  0  0
 30 31  1  0  0  0  0
 31 32  1  0  0  0  0
 32 33  1  0  0  0  0
 32 34  1  0  0  0  0
 34 35  2  0  0  0  0
 34  3  1  0  0  0  0
 27  4  1  0  0  0  0
 24 10  1  0  0  0  0
 20 16  1  0  0  0  0
  1 36  1  0  0  0  0
  1 37  1  0  0  0  0
  1 38  1  0  0  0  0
  2 39  1  0  0  0  0
  2 40  1  0  0  0  0
  5 41  1  0  0  0  0
  6 42  1  0  0  0  0
  7 43  1  0  0  0  0
 11 44  1  0  0  0  0
 14 45  1  0  0  0  0
 14 46  1  0  0  0  0
 14 47  1  0  0  0  0
 15 48  1  0  0  0  0
 15 49  1  0  0  0  0
 15 50  1  0  0  0  0
 17 51  1  0  0  0  0
 19 52  1  0  0  0  0
 21 53  1  0  0  0  0
 21 54  1  0  0  0  0
 21 55  1  0  0  0  0
 22 56  1  0  0  0  0
 23 57  1  0  0  0  0
 27 58  1  0  0  0  0
 28 59  1  0  0  0  0
 28 60  1  0  0  0  0
 29 61  1  0  0  0  0
 29 62  1  0  0  0  0
 30 63  1  0  0  0  0
 30 64  1  0  0  0  0
 31 65  1  0  0  0  0
 31 66  1  0  0  0  0
 33 67  1  0  0  0  0
 33 68  1  0  0  0  0
 33 69  1  0  0  0  0
M  CHG  1  15   1
M  END
>  <docking-score>
-23.00

$$$$
1MZC_BNE_3
foFlexX   03192112253D 1   1.00000     0.00000     0
FlexX 4.5.0 fol007
 69 72  0  0  0  0            999 V2000
   14.6180  137.9620    0.3468 C   0  0  0  0  0  0  0  0  0  0  0  0
   15.0791  136.4983    0.4277 C   0  0  0  0  0  0  0  0  0  0  0  0
   16.0446  136.0311   -0.6509 C   0  0  2  0  0  0  0  0  0  0  0  0
   16.9434  134.9421   -0.0895 C   0  0  0  0  0  0  0  0  0  0  0  0
   17.4159  133.9333   -0.9227 C   0  0  0  0  0  0  0  0  0  0  0  0
   18.2374  132.9465   -0.3871 C   0  0  0  0  0  0  0  0  0  0  0  0
   18.5873  132.9579    0.9590 C   0  0  0  0  0  0  0  0  0  0  0  0
   18.1036  133.9759    1.7744 C   0  0  0  0  0  0  0  0  0  0  0  0
   18.4514  133.9947    3.1337 O   0  0  0  0  0  0  0  0  0  0  0  0
   19.5350  134.6195    3.6413 C   0  0  0  0  0  0  0  0  0  0  0  0
   20.4856  133.8630    4.3187 C   0  0  0  0  0  0  0  0  0  0  0  0
   21.6046  134.5001    4.8447 C   0  0  0  0  0  0  0  0  0  0  0  0
   22.6669  133.6697    5.5993 C   0  0  1  0  0  0  0  0  0  0  0  0
   23.7498  134.6641    6.0859 C   0  0  0  0  0  0  0  0  0  0  0  0
   22.0938  132.9803    6.7719 N   0  3  0  0  0  0  0  0  0  0  0  0
   23.2435  132.6029    4.6535 C   0  0  0  0  0  0  0  0  0  0  0  0
   23.1863  131.2533    4.8427 C   0  0  0  0  0  0  0  0  0  0  0  0
   23.8100  130.6760    3.7765 N   0  0  0  0  0  0  0  0  0  0  0  0
   24.2312  131.6268    2.9702 C   0  0  0  0  0  0  0  0  0  0  0  0
   23.8900  132.8402    3.4815 N   0  0  0  0  0  0  0  0  0  0  0  0
   24.1726  134.1558    2.8885 C   0  0  0  0  0  0  0  0  0  0  0  0
   21.7809  135.8726    4.7017 C   0  0  0  0  0  0  0  0  0  0  0  0
   20.8239  136.6191    4.0223 C   0  0  0  0  0  0  0  0  0  0  0  0
   19.7008  135.9925    3.4919 C   0  0  0  0  0  0  0  0  0  0  0  0
   18.6549  136.8081    2.7494 C   0  0  0  0  0  0  0  0  0  0  0  0
   17.8581  137.4286    2.1843 N   0  0  0  0  0  0  0  0  0  0  0  0
   17.2811  134.9725    1.2597 C   0  0  0  0  0  0  0  0  0  0  0  0
   17.0038  137.1958   -0.9224 C   0  0  0  0  0  0  0  0  0  0  0  0
   16.4612  138.4384   -1.6298 C   0  0  0  0  0  0  0  0  0  0  0  0
   16.1245  138.3046   -3.1181 C   0  0  0  0  0  0  0  0  0  0  0  0
   14.8969  137.4621   -3.4966 C   0  0  0  0  0  0  0  0  0  0  0  0
   14.7520  136.0609   -3.0179 N   0  0  0  0  0  0  0  0  0  0  0  0
   13.9954  135.1881   -3.9289 C   0  0  0  0  0  0  0  0  0  0  0  0
   15.2277  135.4462   -1.8226 C   0  0  0  0  0  0  0  0  0  0  0  0
   14.9509  134.2619   -1.7095 O   0  0  0  0  0  0  0  0  0  0  0  0
   14.1511  138.1168   -0.5238 H   0  0  0  0  0  0  0  0  0  0  0  0
   13.9903  138.1559    1.1007 H   0  0  0  0  0  0  0  0  0  0  0  0
   15.4125  138.5658    0.4109 H   0  0  0  0  0  0  0  0  0  0  0  0
   14.2648  135.9200    0.3779 H   0  0  0  0  0  0  0  0  0  0  0  0
   15.5263  136.3690    1.3127 H   0  0  0  0  0  0  0  0  0  0  0  0
   17.1689  133.9176   -1.8915 H   0  0  0  0  0  0  0  0  0  0  0  0
   18.5816  132.2177   -0.9791 H   0  0  0  0  0  0  0  0  0  0  0  0
   19.1784  132.2445    1.3353 H   0  0  0  0  0  0  0  0  0  0  0  0
   20.3663  132.8759    4.4259 H   0  0  0  0  0  0  0  0  0  0  0  0
   24.4681  134.1642    6.5699 H   0  0  0  0  0  0  0  0  0  0  0  0
   24.1454  135.1375    5.2989 H   0  0  0  0  0  0  0  0  0  0  0  0
   23.3352  135.3328    6.7031 H   0  0  0  0  0  0  0  0  0  0  0  0
   21.3670  132.3621    6.4728 H   0  0  0  0  0  0  0  0  0  0  0  0
   22.8094  132.4553    7.2326 H   0  0  0  0  0  0  0  0  0  0  0  0
   21.7168  133.6566    7.4048 H   0  0  0  0  0  0  0  0  0  0  0  0
   22.7668  130.7779    5.6160 H   0  0  0  0  0  0  0  0  0  0  0  0
   24.7259  131.4799    2.1136 H   0  0  0  0  0  0  0  0  0  0  0  0
   23.8129  134.8741    3.4841 H   0  0  0  0  0  0  0  0  0  0  0  0
   25.1608  134.2705    2.7874 H   0  0  0  0  0  0  0  0  0  0  0  0
   23.7363  134.2175    1.9909 H   0  0  0  0  0  0  0  0  0  0  0  0
   22.5896  136.3192    5.0844 H   0  0  0  0  0  0  0  0  0  0  0  0
   20.9431  137.6061    3.9152 H   0  0  0  0  0  0  0  0  0  0  0  0
   16.9371  135.7013    1.8517 H   0  0  0  0  0  0  0  0  0  0  0  0
   17.7502  136.8388   -1.4839 H   0  0  0  0  0  0  0  0  0  0  0  0
   17.3645  137.4933   -0.0384 H   0  0  0  0  0  0  0  0  0  0  0  0
   17.1480  139.1597   -1.5403 H   0  0  0  0  0  0  0  0  0  0  0  0
   15.6249  138.7137   -1.1556 H   0  0  0  0  0  0  0  0  0  0  0  0
   15.9762  139.2267   -3.4754 H   0  0  0  0  0  0  0  0  0  0  0  0
   16.9182  137.8961   -3.5689 H   0  0  0  0  0  0  0  0  0  0  0  0
   14.0965  137.9605   -3.1635 H   0  0  0  0  0  0  0  0  0  0  0  0
   14.8746  137.4250   -4.4956 H   0  0  0  0  0  0  0  0  0  0  0  0
   13.9390  134.2687   -3.5396 H   0  0  0  0  0  0  0  0  0  0  0  0
   13.0733  135.5547   -4.0527 H   0  0  0  0  0  0  0  0  0  0  0  0
   14.4595  135.1475   -4.8138 H   0  0  0  0  0  0  0  0  0  0  0  0
  1  2  1  0  0  0  0
  2  3  1  0  0  0  0
  3  4  1  0  0  0  0
  4  5  2  0  0  0  0
  5  6  1  0  0  0  0
  6  7  2  0  0  0  0
  7  8  1  0  0  0  0
  8  9  1  0  0  0  0
  9 10  1  0  0  0  0
 10 11  2  0  0  0  0
 11 12  1  0  0  0  0
 12 13  1  0  0  0  0
 13 14  1  0  0  0  0
 13 15  1  0  0  0  0
 13 16  1  0  0  0  0
 16 17  2  0  0  0  0
 17 18  1  0  0  0  0
 18 19  2  0  0  0  0
 19 20  1  0  0  0  0
 20 21  1  0  0  0  0
 12 22  2  0  0  0  0
 22 23  1  0  0  0  0
 23 24  2  0  0  0  0
 24 25  1  0  0  0  0
 25 26  3  0  0  0  0
  8 27  2  0  0  0  0
  3 28  1  0  0  0  0
 28 29  1  0  0  0  0
 29 30  1  0  0  0  0
 30 31  1  0  0  0  0
 31 32  1  0  0  0  0
 32 33  1  0  0  0  0
 32 34  1  0  0  0  0
 34 35  2  0  0  0  0
 34  3  1  0  0  0  0
 27  4  1  0  0  0  0
 24 10  1  0  0  0  0
 20 16  1  0  0  0  0
  1 36  1  0  0  0  0
  1 37  1  0  0  0  0
  1 38  1  0  0  0  0
  2 39  1  0  0  0  0
  2 40  1  0  0  0  0
  5 41  1  0  0  0  0
  6 42  1  0  0  0  0
  7 43  1  0  0  0  0
 11 44  1  0  0  0  0
 14 45  1  0  0  0  0
 14 46  1  0  0  0  0
 14 47  1  0  0  0  0
 15 48  1  0  0  0  0
 15 49  1  0  0  0  0
 15 50  1  0  0  0  0
 17 51  1  0  0  0  0
 19 52  1  0  0  0  0
 21 53  1  0  0  0  0
 21 54  1  0  0  0  0
 21 55  1  0  0  0  0
 22 56  1  0  0  0  0
 23 57  1  0  0  0  0
 27 58  1  0  0  0  0
 28 59  1  0  0  0  0
 28 60  1  0  0  0  0
 29 61  1  0  0  0  0
 29 62  1  0  0  0  0
 30 63  1  0  0  0  0
 30 64  1  0  0  0  0
 31 65  1  0  0  0  0
 31 66  1  0  0  0  0
 33 67  1  0  0  0  0
 33 68  1  0  0  0  0
 33 69  1  0  0  0  0
M  CHG  1  15   1
M  END
>  <docking-score>
-22.65

$$$$
1LD7_U66_1
foFlexX   03192112253D 1   1.00000     0.00000     0
FlexX 4.5.0 fol007
 62 67  0  0  0  0            999 V2000
   14.0820  131.7689   -3.0563 N   0  0  0  0  0  0  0  0  0  0  0  0
   14.0922  132.7988   -3.5840 C   0  0  0  0  0  0  0  0  0  0  0  0
   14.1053  134.1129   -4.2569 C   0  0  2  0  0  0  0  0  0  0  0  0
   14.4242  133.9491   -5.7548 C   0  0  0  0  0  0  0  0  0  0  0  0
   15.9008  133.9148   -6.0758 C   0  0  0  0  0  0  0  0  0  0  0  0
   16.8532  134.3614   -5.2268 C   0  0  0  0  0  0  0  0  0  0  0  0
   16.5347  134.5650   -3.7613 C   0  0  0  0  0  0  0  0  0  0  0  0
   15.0946  135.0875   -3.5858 C   0  0  2  0  0  0  0  0  0  0  0  0
   14.7400  135.2326   -2.2063 O   0  0  0  0  0  0  0  0  0  0  0  0
   14.9554  136.3857   -1.4358 C   0  0  0  0  0  0  0  0  0  0  0  0
   14.1009  136.6379   -0.3567 C   0  0  0  0  0  0  0  0  0  0  0  0
   14.2424  137.8006    0.4070 C   0  0  0  0  0  0  0  0  0  0  0  0
   15.2896  138.6956    0.1419 C   0  0  0  0  0  0  0  0  0  0  0  0
   15.4431  139.8648    0.9012 C   0  0  0  0  0  0  0  0  0  0  0  0
   16.5161  140.7249    0.6549 C   0  0  0  0  0  0  0  0  0  0  0  0
   17.4668  140.4049   -0.3176 C   0  0  0  0  0  0  0  0  0  0  0  0
   17.3356  139.2356   -1.0810 C   0  0  0  0  0  0  0  0  0  0  0  0
   16.2118  138.4053   -0.8913 C   0  0  0  0  0  0  0  0  0  0  0  0
   15.9946  137.2879   -1.7117 C   0  0  0  0  0  0  0  0  0  0  0  0
   18.4305  138.7967   -1.8999 N   0  0  0  0  0  0  0  0  0  0  0  0
   19.3638  137.7742   -1.4469 C   0  0  0  0  0  0  0  0  0  0  0  0
   20.5365  137.7851   -2.4433 C   0  0  0  0  0  0  0  0  0  0  0  0
   20.4175  139.1158   -3.2220 C   0  0  1  0  0  0  0  0  0  0  0  0
   20.7411  139.0676   -4.6704 N   0  3  0  0  0  0  0  0  0  0  0  0
   20.2643  137.9226   -5.4750 C   0  0  0  0  0  0  0  0  0  0  0  0
   18.7345  137.7479   -5.4796 C   0  0  0  0  0  0  0  0  0  0  0  0
   18.3187  136.9611   -6.6940 C   0  0  0  0  0  0  0  0  0  0  0  0
   18.1860  137.4953   -7.9587 C   0  0  0  0  0  0  0  0  0  0  0  0
   18.0215  136.5014   -8.8528 N   0  0  0  0  0  0  0  0  0  0  0  0
   18.0653  135.3745   -8.1129 C   0  0  0  0  0  0  0  0  0  0  0  0
   18.2523  135.6166   -6.7979 N   0  0  0  0  0  0  0  0  0  0  0  0
   18.2601  134.6057   -5.7345 C   0  0  0  0  0  0  0  0  0  0  0  0
   19.0366  139.5665   -2.9196 C   0  0  0  0  0  0  0  0  0  0  0  0
   18.4920  140.5822   -3.4300 O   0  0  0  0  0  0  0  0  0  0  0  0
   13.1888  134.5055   -4.1800 H   0  0  0  0  0  0  0  0  0  0  0  0
   14.0141  134.7162   -6.2481 H   0  0  0  0  0  0  0  0  0  0  0  0
   14.0151  133.0929   -6.0704 H   0  0  0  0  0  0  0  0  0  0  0  0
   16.1871  133.5438   -6.9592 H   0  0  0  0  0  0  0  0  0  0  0  0
   17.1747  135.2293   -3.3752 H   0  0  0  0  0  0  0  0  0  0  0  0
   16.6288  133.6932   -3.2805 H   0  0  0  0  0  0  0  0  0  0  0  0
   15.0198  135.9792   -4.0322 H   0  0  0  0  0  0  0  0  0  0  0  0
   13.3823  135.9805   -0.1296 H   0  0  0  0  0  0  0  0  0  0  0  0
   13.5953  137.9948    1.1443 H   0  0  0  0  0  0  0  0  0  0  0  0
   14.7833  140.0831    1.6202 H   0  0  0  0  0  0  0  0  0  0  0  0
   16.6040  141.5733    1.1769 H   0  0  0  0  0  0  0  0  0  0  0  0
   18.2456  141.0133   -0.4703 H   0  0  0  0  0  0  0  0  0  0  0  0
   16.5871  137.1325   -2.5022 H   0  0  0  0  0  0  0  0  0  0  0  0
   18.9204  136.8778   -1.4444 H   0  0  0  0  0  0  0  0  0  0  0  0
   19.6902  137.9872   -0.5260 H   0  0  0  0  0  0  0  0  0  0  0  0
   20.4685  137.0083   -3.0693 H   0  0  0  0  0  0  0  0  0  0  0  0
   21.4083  137.7444   -1.9551 H   0  0  0  0  0  0  0  0  0  0  0  0
   21.0449  139.7682   -2.7969 H   0  0  0  0  0  0  0  0  0  0  0  0
   21.7378  139.0854   -4.7484 H   0  0  0  0  0  0  0  0  0  0  0  0
   20.3595  139.8946   -5.0832 H   0  0  0  0  0  0  0  0  0  0  0  0
   20.6741  137.0881   -5.1067 H   0  0  0  0  0  0  0  0  0  0  0  0
   20.5678  138.0544   -6.4187 H   0  0  0  0  0  0  0  0  0  0  0  0
   18.2971  138.6470   -5.5000 H   0  0  0  0  0  0  0  0  0  0  0  0
   18.4530  137.2589   -4.6540 H   0  0  0  0  0  0  0  0  0  0  0  0
   18.2085  138.4706   -8.1781 H   0  0  0  0  0  0  0  0  0  0  0  0
   17.9692  134.4565   -8.4977 H   0  0  0  0  0  0  0  0  0  0  0  0
   18.8318  134.9264   -4.9793 H   0  0  0  0  0  0  0  0  0  0  0  0
   18.6331  133.7509   -6.0953 H   0  0  0  0  0  0  0  0  0  0  0  0
  1  2  3  0  0  0  0
  2  3  1  0  0  0  0
  3  4  1  0  0  0  0
  4  5  1  0  0  0  0
  5  6  2  0  0  0  0
  6  7  1  0  0  0  0
  7  8  1  0  0  0  0
  8  9  1  0  0  0  0
  9 10  1  0  0  0  0
 10 11  2  0  0  0  0
 11 12  1  0  0  0  0
 12 13  2  0  0  0  0
 13 14  1  0  0  0  0
 14 15  2  0  0  0  0
 15 16  1  0  0  0  0
 16 17  2  0  0  0  0
 17 18  1  0  0  0  0
 18 19  2  0  0  0  0
 17 20  1  0  0  0  0
 20 21  1  0  0  0  0
 21 22  1  0  0  0  0
 22 23  1  0  0  0  0
 23 24  1  0  0  0  0
 24 25  1  0  0  0  0
 25 26  1  0  0  0  0
 26 27  1  0  0  0  0
 27 28  2  0  0  0  0
 28 29  1  0  0  0  0
 29 30  2  0  0  0  0
 30 31  1  0  0  0  0
 31 32  1  0  0  0  0
 23 33  1  0  0  0  0
 33 34  2  0  0  0  0
  8  3  1  0  0  0  0
 19 10  1  0  0  0  0
 33 20  1  0  0  0  0
 32  6  1  0  0  0  0
 18 13  1  0  0  0  0
 31 27  1  0  0  0  0
  3 35  1  0  0  0  0
  4 36  1  0  0  0  0
  4 37  1  0  0  0  0
  5 38  1  0  0  0  0
  7 39  1  0  0  0  0
  7 40  1  0  0  0  0
  8 41  1  0  0  0  0
 11 42  1  0  0  0  0
 12 43  1  0  0  0  0
 14 44  1  0  0  0  0
 15 45  1  0  0  0  0
 16 46  1  0  0  0  0
 19 47  1  0  0  0  0
 21 48  1  0  0  0  0
 21 49  1  0  0  0  0
 22 50  1  0  0  0  0
 22 51  1  0  0  0  0
 23 52  1  0  0  0  0
 24 53  1  0  0  0  0
 24 54  1  0  0  0  0
 25 55  1  0  0  0  0
 25 56  1  0  0  0  0
 26 57  1  0  0  0  0
 26 58  1  0  0  0  0
 28 59  1  0  0  0  0
 30 60  1  0  0  0  0
 32 61  1  0  0  0  0
 32 62  1  0  0  0  0
M  CHG  1  24   1
M  END
>  <docking-score>
-20.12

$$$$
1LD7_U66_2
foFlexX   03192112253D 1   1.00000     0.00000     0
FlexX 4.5.0 fol007
 62 67  0  0  0  0            999 V2000
   13.2147  132.8642   -3.0180 N   0  0  0  0  0  0  0  0  0  0  0  0
   13.3658  133.8668   -3.5759 C   0  0  0  0  0  0  0  0  0  0  0  0
   13.5586  135.1461   -4.2873 C   0  0  2  0  0  0  0  0  0  0  0  0
   13.9367  134.8936   -5.7589 C   0  0  0  0  0  0  0  0  0  0  0  0
   15.4156  134.6886   -5.9943 C   0  0  0  0  0  0  0  0  0  0  0  0
   16.3648  135.0610   -5.1068 C   0  0  0  0  0  0  0  0  0  0  0  0
   15.9932  135.3517   -3.6687 C   0  0  0  0  0  0  0  0  0  0  0  0
   14.6118  136.0325   -3.5916 C   0  0  2  0  0  0  0  0  0  0  0  0
   14.2024  136.2659   -2.2396 O   0  0  0  0  0  0  0  0  0  0  0  0
   14.5019  137.4167   -1.4942 C   0  0  0  0  0  0  0  0  0  0  0  0
   13.6240  137.7993   -0.4737 C   0  0  0  0  0  0  0  0  0  0  0  0
   13.8514  138.9674    0.2605 C   0  0  0  0  0  0  0  0  0  0  0  0
   15.0030  139.7338    0.0277 C   0  0  0  0  0  0  0  0  0  0  0  0
   15.2432  140.9069    0.7579 C   0  0  0  0  0  0  0  0  0  0  0  0
   16.4157  141.6368    0.5465 C   0  0  0  0  0  0  0  0  0  0  0  0
   17.3759  141.1804   -0.3601 C   0  0  0  0  0  0  0  0  0  0  0  0
   17.1579  140.0047   -1.0931 C   0  0  0  0  0  0  0  0  0  0  0  0
   15.9414  139.3079   -0.9420 C   0  0  0  0  0  0  0  0  0  0  0  0
   15.6469  138.1908   -1.7385 C   0  0  0  0  0  0  0  0  0  0  0  0
   18.2401  139.4203   -1.8345 N   0  0  0  0  0  0  0  0  0  0  0  0
   19.0302  138.3206   -1.2979 C   0  0  0  0  0  0  0  0  0  0  0  0
   20.2483  138.1683   -2.2259 C   0  0  0  0  0  0  0  0  0  0  0  0
   20.3174  139.4743   -3.0509 C   0  0  1  0  0  0  0  0  0  0  0  0
   20.7102  139.3380   -4.4764 N   0  3  0  0  0  0  0  0  0  0  0  0
   20.1542  138.2221   -5.2710 C   0  0  0  0  0  0  0  0  0  0  0  0
   18.6168  138.2133   -5.3571 C   0  0  0  0  0  0  0  0  0  0  0  0
   18.1824  137.4315   -6.5681 C   0  0  0  0  0  0  0  0  0  0  0  0
   18.1764  137.9298   -7.8542 C   0  0  0  0  0  0  0  0  0  0  0  0
   17.9516  136.9271   -8.7250 N   0  0  0  0  0  0  0  0  0  0  0  0
   17.8322  135.8302   -7.9493 C   0  0  0  0  0  0  0  0  0  0  0  0
   17.9745  136.0991   -6.6340 N   0  0  0  0  0  0  0  0  0  0  0  0
   17.8149  135.1332   -5.5410 C   0  0  0  0  0  0  0  0  0  0  0  0
   18.9802  140.0821   -2.8416 C   0  0  0  0  0  0  0  0  0  0  0  0
   18.5782  141.1310   -3.4133 O   0  0  0  0  0  0  0  0  0  0  0  0
   12.6879  135.6378   -4.2748 H   0  0  0  0  0  0  0  0  0  0  0  0
   13.6400  135.6817   -6.2982 H   0  0  0  0  0  0  0  0  0  0  0  0
   13.4535  134.0755   -6.0706 H   0  0  0  0  0  0  0  0  0  0  0  0
   15.7060  134.2564   -6.8481 H   0  0  0  0  0  0  0  0  0  0  0  0
   16.6807  135.9570   -3.2676 H   0  0  0  0  0  0  0  0  0  0  0  0
   15.9654  134.4932   -3.1566 H   0  0  0  0  0  0  0  0  0  0  0  0
   14.6590  136.9100   -4.0690 H   0  0  0  0  0  0  0  0  0  0  0  0
   12.8267  137.2320   -0.2676 H   0  0  0  0  0  0  0  0  0  0  0  0
   13.1913  139.2572    0.9534 H   0  0  0  0  0  0  0  0  0  0  0  0
   14.5741  141.2215    1.4312 H   0  0  0  0  0  0  0  0  0  0  0  0
   16.5683  142.4894    1.0461 H   0  0  0  0  0  0  0  0  0  0  0  0
   18.2237  141.6952   -0.4871 H   0  0  0  0  0  0  0  0  0  0  0  0
   16.2599  137.9434   -2.4888 H   0  0  0  0  0  0  0  0  0  0  0  0
   18.4917  137.4780   -1.2928 H   0  0  0  0  0  0  0  0  0  0  0  0
   19.3287  138.5311   -0.3670 H   0  0  0  0  0  0  0  0  0  0  0  0
   20.1289  137.3807   -2.8304 H   0  0  0  0  0  0  0  0  0  0  0  0
   21.0832  138.0519   -1.6879 H   0  0  0  0  0  0  0  0  0  0  0  0
   20.9891  140.0706   -2.6112 H   0  0  0  0  0  0  0  0  0  0  0  0
   21.7057  139.2454   -4.4982 H   0  0  0  0  0  0  0  0  0  0  0  0
   20.4441  140.1855   -4.9356 H   0  0  0  0  0  0  0  0  0  0  0  0
   20.4499  137.3625   -4.8543 H   0  0  0  0  0  0  0  0  0  0  0  0
   20.5199  138.2855   -6.1995 H   0  0  0  0  0  0  0  0  0  0  0  0
   18.2824  139.1529   -5.4301 H   0  0  0  0  0  0  0  0  0  0  0  0
   18.2400  137.7883   -4.5340 H   0  0  0  0  0  0  0  0  0  0  0  0
   18.3173  138.8883   -8.1021 H   0  0  0  0  0  0  0  0  0  0  0  0
   17.6566  134.9143   -8.3104 H   0  0  0  0  0  0  0  0  0  0  0  0
   18.3774  135.4182   -4.7649 H   0  0  0  0  0  0  0  0  0  0  0  0
   18.1106  134.2305   -5.8534 H   0  0  0  0  0  0  0  0  0  0  0  0
  1  2  3  0  0  0  0
  2  3  1  0  0  0  0
  3  4  1  0  0  0  0
  4  5  1  0  0  0  0
  5  6  2  0  0  0  0
  6  7  1  0  0  0  0
  7  8  1  0  0  0  0
  8  9  1  0  0  0  0
  9 10  1  0  0  0  0
 10 11  2  0  0  0  0
 11 12  1  0  0  0  0
 12 13  2  0  0  0  0
 13 14  1  0  0  0  0
 14 15  2  0  0  0  0
 15 16  1  0  0  0  0
 16 17  2  0  0  0  0
 17 18  1  0  0  0  0
 18 19  2  0  0  0  0
 17 20  1  0  0  0  0
 20 21  1  0  0  0  0
 21 22  1  0  0  0  0
 22 23  1  0  0  0  0
 23 24  1  0  0  0  0
 24 25  1  0  0  0  0
 25 26  1  0  0  0  0
 26 27  1  0  0  0  0
 27 28  2  0  0  0  0
 28 29  1  0  0  0  0
 29 30  2  0  0  0  0
 30 31  1  0  0  0  0
 31 32  1  0  0  0  0
 23 33  1  0  0  0  0
 33 34  2  0  0  0  0
  8  3  1  0  0  0  0
 19 10  1  0  0  0  0
 33 20  1  0  0  0  0
 32  6  1  0  0  0  0
 18 13  1  0  0  0  0
 31 27  1  0  0  0  0
  3 35  1  0  0  0  0
  4 36  1  0  0  0  0
  4 37  1  0  0  0  0
  5 38  1  0  0  0  0
  7 39  1  0  0  0  0
  7 40  1  0  0  0  0
  8 41  1  0  0  0  0
 11 42  1  0  0  0  0
 12 43  1  0  0  0  0
 14 44  1  0  0  0  0
 15 45  1  0  0  0  0
 16 46  1  0  0  0  0
 19 47  1  0  0  0  0
 21 48  1  0  0  0  0
 21 49  1  0  0  0  0
 22 50  1  0  0  0  0
 22 51  1  0  0  0  0
 23 52  1  0  0  0  0
 24 53  1  0  0  0  0
 24 54  1  0  0  0  0
 25 55  1  0  0  0  0
 25 56  1  0  0  0  0
 26 57  1  0  0  0  0
 26 58  1  0  0  0  0
 28 59  1  0  0  0  0
 30 60  1  0  0  0  0
 32 61  1  0  0  0  0
 32 62  1  0  0  0  0
M  CHG  1  24   1
M  END
>  <docking-score>
-17.47

$$$$
1LD7_U66_3
foFlexX   03192112253D 1   1.00000     0.00000     0
FlexX 4.5.0 fol007
 62 67  0  0  0  0            999 V2000
   14.2437  131.1617   -3.8365 N   0  0  0  0  0  0  0  0  0  0  0  0
   14.1978  132.2509   -4.2248 C   0  0  0  0  0  0  0  0  0  0  0  0
   14.1393  133.6407   -4.7198 C   0  0  2  0  0  0  0  0  0  0  0  0
   14.4350  133.6884   -6.2306 C   0  0  0  0  0  0  0  0  0  0  0  0
   15.9050  133.7648   -6.5742 C   0  0  0  0  0  0  0  0  0  0  0  0
   16.8536  134.1407   -5.6875 C   0  0  0  0  0  0  0  0  0  0  0  0
   16.5559  134.1366   -4.2036 C   0  0  0  0  0  0  0  0  0  0  0  0
   15.0979  134.5644   -3.9409 C   0  0  2  0  0  0  0  0  0  0  0  0
   14.7650  134.5120   -2.5494 O   0  0  0  0  0  0  0  0  0  0  0  0
   14.9448  135.5636   -1.6376 C   0  0  0  0  0  0  0  0  0  0  0  0
   14.1018  135.6332   -0.5227 C   0  0  0  0  0  0  0  0  0  0  0  0
   14.2071  136.6919    0.3847 C   0  0  0  0  0  0  0  0  0  0  0  0
   15.2082  137.6613    0.2243 C   0  0  0  0  0  0  0  0  0  0  0  0
   15.3252  138.7275    1.1281 C   0  0  0  0  0  0  0  0  0  0  0  0
   16.3540  139.6613    0.9814 C   0  0  0  0  0  0  0  0  0  0  0  0
   17.2982  139.5151   -0.0379 C   0  0  0  0  0  0  0  0  0  0  0  0
   17.2034  138.4504   -0.9460 C   0  0  0  0  0  0  0  0  0  0  0  0
   16.1214  137.5512   -0.8509 C   0  0  0  0  0  0  0  0  0  0  0  0
   15.9374  136.5413   -1.8076 C   0  0  0  0  0  0  0  0  0  0  0  0
   18.3000  138.1731   -1.8308 N   0  0  0  0  0  0  0  0  0  0  0  0
   19.2864  137.1448   -1.5290 C   0  0  0  0  0  0  0  0  0  0  0  0
   20.4373  137.3398   -2.5318 C   0  0  0  0  0  0  0  0  0  0  0  0
   20.2440  138.7536   -3.1276 C   0  0  1  0  0  0  0  0  0  0  0  0
   20.5402  138.9095   -4.5743 N   0  3  0  0  0  0  0  0  0  0  0  0
   20.0984  137.8582   -5.5152 C   0  0  0  0  0  0  0  0  0  0  0  0
   18.5780  137.6148   -5.5210 C   0  0  0  0  0  0  0  0  0  0  0  0
   18.1731  136.9744   -6.8220 C   0  0  0  0  0  0  0  0  0  0  0  0
   17.9916  137.6621   -8.0038 C   0  0  0  0  0  0  0  0  0  0  0  0
   17.8532  136.7866   -9.0180 N   0  0  0  0  0  0  0  0  0  0  0  0
   17.9615  135.5762   -8.4328 C   0  0  0  0  0  0  0  0  0  0  0  0
   18.1641  135.6533   -7.1003 N   0  0  0  0  0  0  0  0  0  0  0  0
   18.2378  134.5140   -6.1787 C   0  0  0  0  0  0  0  0  0  0  0  0
   18.8509  139.0966   -2.7493 C   0  0  0  0  0  0  0  0  0  0  0  0
   18.2519  140.1436   -3.1145 O   0  0  0  0  0  0  0  0  0  0  0  0
   13.2081  133.9770   -4.5792 H   0  0  0  0  0  0  0  0  0  0  0  0
   13.9816  134.4933   -6.6133 H   0  0  0  0  0  0  0  0  0  0  0  0
   14.0578  132.8625   -6.6499 H   0  0  0  0  0  0  0  0  0  0  0  0
   16.1896  133.5256   -7.5026 H   0  0  0  0  0  0  0  0  0  0  0  0
   17.1735  134.7740   -3.7429 H   0  0  0  0  0  0  0  0  0  0  0  0
   16.6980  133.2149   -3.8426 H   0  0  0  0  0  0  0  0  0  0  0  0
   14.9749  135.5022   -4.2655 H   0  0  0  0  0  0  0  0  0  0  0  0
   13.4177  134.9192   -0.3736 H   0  0  0  0  0  0  0  0  0  0  0  0
   13.5670  136.7581    1.1501 H   0  0  0  0  0  0  0  0  0  0  0  0
   14.6709  138.8195    1.8787 H   0  0  0  0  0  0  0  0  0  0  0  0
   16.4149  140.4376    1.6088 H   0  0  0  0  0  0  0  0  0  0  0  0
   18.0462  140.1737   -0.1206 H   0  0  0  0  0  0  0  0  0  0  0  0
   16.5202  136.5179   -2.6198 H   0  0  0  0  0  0  0  0  0  0  0  0
   18.8832  136.2361   -1.6376 H   0  0  0  0  0  0  0  0  0  0  0  0
   19.6215  137.2510   -0.5928 H   0  0  0  0  0  0  0  0  0  0  0  0
   20.3911  136.6488   -3.2532 H   0  0  0  0  0  0  0  0  0  0  0  0
   21.3196  137.2764   -2.0655 H   0  0  0  0  0  0  0  0  0  0  0  0
   20.8504  139.3735   -2.6296 H   0  0  0  0  0  0  0  0  0  0  0  0
   21.5335  138.9836   -4.6634 H   0  0  0  0  0  0  0  0  0  0  0  0
   20.1143  139.7647   -4.8698 H   0  0  0  0  0  0  0  0  0  0  0  0
   20.5520  137.0028   -5.2652 H   0  0  0  0  0  0  0  0  0  0  0  0
   20.3768  138.1258   -6.4377 H   0  0  0  0  0  0  0  0  0  0  0  0
   18.1011  138.4876   -5.4172 H   0  0  0  0  0  0  0  0  0  0  0  0
   18.3351  137.0099   -4.7627 H   0  0  0  0  0  0  0  0  0  0  0  0
   17.9666  138.6577   -8.0938 H   0  0  0  0  0  0  0  0  0  0  0  0
   17.8984  134.7127   -8.9332 H   0  0  0  0  0  0  0  0  0  0  0  0
   18.8098  134.7597   -5.3961 H   0  0  0  0  0  0  0  0  0  0  0  0
   18.6409  133.7317   -6.6536 H   0  0  0  0  0  0  0  0  0  0  0  0
  1  2  3  0  0  0  0
  2  3  1  0  0  0  0
  3  4  1  0  0  0  0
  4  5  1  0  0  0  0
  5  6  2  0  0  0  0
  6  7  1  0  0  0  0
  7  8  1  0  0  0  0
  8  9  1  0  0  0  0
  9 10  1  0  0  0  0
 10 11  2  0  0  0  0
 11 12  1  0  0  0  0
 12 13  2  0  0  0  0
 13 14  1  0  0  0  0
 14 15  2  0  0  0  0
 15 16  1  0  0  0  0
 16 17  2  0  0  0  0
 17 18  1  0  0  0  0
 18 19  2  0  0  0  0
 17 20  1  0  0  0  0
 20 21  1  0  0  0  0
 21 22  1  0  0  0  0
 22 23  1  0  0  0  0
 23 24  1  0  0  0  0
 24 25  1  0  0  0  0
 25 26  1  0  0  0  0
 26 27  1  0  0  0  0
 27 28  2  0  0  0  0
 28 29  1  0  0  0  0
 29 30  2  0  0  0  0
 30 31  1  0  0  0  0
 31 32  1  0  0  0  0
 23 33  1  0  0  0  0
 33 34  2  0  0  0  0
  8  3  1  0  0  0  0
 19 10  1  0  0  0  0
 33 20  1  0  0  0  0
 32  6  1  0  0  0  0
 18 13  1  0  0  0  0
 31 27  1  0  0  0  0
  3 35  1  0  0  0  0
  4 36  1  0  0  0  0
  4 37  1  0  0  0  0
  5 38  1  0  0  0  0
  7 39  1  0  0  0  0
  7 40  1  0  0  0  0
  8 41  1  0  0  0  0
 11 42  1  0  0  0  0
 12 43  1  0  0  0  0
 14 44  1  0  0  0  0
 15 45  1  0  0  0  0
 16 46  1  0  0  0  0
 19 47  1  0  0  0  0
 21 48  1  0  0  0  0
 21 49  1  0  0  0  0
 22 50  1  0  0  0  0
 22 51  1  0  0  0  0
 23 52  1  0  0  0  0
 24 53  1  0  0  0  0
 24 54  1  0  0  0  0
 25 55  1  0  0  0  0
 25 56  1  0  0  0  0
 26 57  1  0  0  0  0
 26 58  1  0  0  0  0
 28 59  1  0  0  0  0
 30 60  1  0  0  0  0
 32 61  1  0  0  0  0
 32 62  1  0  0  0  0
M  CHG  1  24   1
M  END
>  <docking-score>
-15.93

$$$$
1S63_778_1
foFlexX   03192112253D 1   1.00000     0.00000     0
FlexX 4.5.0 fol007
 50 53  0  0  0  0            999 V2000
   23.2809  137.4194   -1.9212 N   0  0  0  0  0  0  0  0  0  0  0  0
   22.3736  137.0430   -2.5327 C   0  0  0  0  0  0  0  0  0  0  0  0
   21.1818  136.5480   -3.3358 C   0  0  0  0  0  0  0  0  0  0  0  0
   19.9237  136.5199   -2.7424 C   0  0  0  0  0  0  0  0  0  0  0  0
   18.8239  136.0701   -3.4653 C   0  0  0  0  0  0  0  0  0  0  0  0
   19.0011  135.6518   -4.7801 C   0  0  0  0  0  0  0  0  0  0  0  0
   17.8189  135.1610   -5.5736 C   0  0  0  0  0  0  0  0  0  0  0  0
   17.6121  135.9894   -6.7707 N   0  0  0  0  0  0  0  0  0  0  0  0
   18.1689  135.7612   -7.9952 C   0  0  0  0  0  0  0  0  0  0  0  0
   17.7519  136.7069   -8.8081 N   0  0  0  0  0  0  0  0  0  0  0  0
   16.9266  137.5498   -8.1188 C   0  0  0  0  0  0  0  0  0  0  0  0
   16.8336  137.1044   -6.8325 C   0  0  0  0  0  0  0  0  0  0  0  0
   16.0265  137.7216   -5.7148 C   0  0  0  0  0  0  0  0  0  0  0  0
   14.6620  137.1834   -5.6527 N   0  3  1  0  0  0  0  0  0  0  0  0
   14.7357  135.8426   -6.2682 C   0  0  0  0  0  0  0  0  0  0  0  0
   14.0582  134.7044   -5.5073 C   0  0  0  0  0  0  0  0  0  0  0  0
   14.4518  134.7338   -4.0922 N   0  0  0  0  0  0  0  0  0  0  0  0
   14.7172  133.5333   -3.4219 C   0  0  0  0  0  0  0  0  0  0  0  0
   13.7180  132.5703   -3.3229 C   0  0  0  0  0  0  0  0  0  0  0  0
   13.9876  131.3789   -2.6573 C   0  0  0  0  0  0  0  0  0  0  0  0
   15.2374  131.1441   -2.0944 C   0  0  0  0  0  0  0  0  0  0  0  0
   16.2222  132.1205   -2.2055 C   0  0  0  0  0  0  0  0  0  0  0  0
   17.8284  131.8391   -1.4924 Cl  0  0  0  0  0  0  0  0  0  0  0  0
   15.9742  133.3189   -2.8666 C   0  0  0  0  0  0  0  0  0  0  0  0
   14.5485  135.9757   -3.4485 C   0  0  0  0  0  0  0  0  0  0  0  0
   14.8895  136.0345   -2.2753 O   0  0  0  0  0  0  0  0  0  0  0  0
   14.2451  137.2440   -4.2335 C   0  0  0  0  0  0  0  0  0  0  0  0
   20.2576  135.6780   -5.3763 C   0  0  0  0  0  0  0  0  0  0  0  0
   21.3558  136.1289   -4.6508 C   0  0  0  0  0  0  0  0  0  0  0  0
   19.8101  136.8231   -1.7962 H   0  0  0  0  0  0  0  0  0  0  0  0
   17.9168  136.0477   -3.0450 H   0  0  0  0  0  0  0  0  0  0  0  0
   17.0001  135.2023   -5.0011 H   0  0  0  0  0  0  0  0  0  0  0  0
   17.9824  134.2151   -5.8538 H   0  0  0  0  0  0  0  0  0  0  0  0
   18.7841  135.0092   -8.2322 H   0  0  0  0  0  0  0  0  0  0  0  0
   16.4687  138.3561   -8.4933 H   0  0  0  0  0  0  0  0  0  0  0  0
   15.9766  138.7096   -5.8613 H   0  0  0  0  0  0  0  0  0  0  0  0
   16.4856  137.5364   -4.8459 H   0  0  0  0  0  0  0  0  0  0  0  0
   14.0557  137.7621   -6.1980 H   0  0  0  0  0  0  0  0  0  0  0  0
   15.7024  135.6074   -6.3690 H   0  0  0  0  0  0  0  0  0  0  0  0
   14.3105  135.8994   -7.1715 H   0  0  0  0  0  0  0  0  0  0  0  0
   13.0657  134.8060   -5.5762 H   0  0  0  0  0  0  0  0  0  0  0  0
   14.3323  133.8302   -5.9082 H   0  0  0  0  0  0  0  0  0  0  0  0
   12.8170  132.7326   -3.7253 H   0  0  0  0  0  0  0  0  0  0  0  0
   13.2737  130.6826   -2.5826 H   0  0  0  0  0  0  0  0  0  0  0  0
   15.4255  130.2859   -1.6168 H   0  0  0  0  0  0  0  0  0  0  0  0
   16.6882  134.0151   -2.9414 H   0  0  0  0  0  0  0  0  0  0  0  0
   13.2589  137.4061   -4.2014 H   0  0  0  0  0  0  0  0  0  0  0  0
   14.7227  138.0065   -3.7970 H   0  0  0  0  0  0  0  0  0  0  0  0
   20.3710  135.3740   -6.3222 H   0  0  0  0  0  0  0  0  0  0  0  0
   22.2629  136.1516   -5.0713 H   0  0  0  0  0  0  0  0  0  0  0  0
  1  2  3  0  0  0  0
  2  3  1  0  0  0  0
  3  4  2  0  0  0  0
  4  5  1  0  0  0  0
  5  6  2  0  0  0  0
  6  7  1  0  0  0  0
  7  8  1  0  0  0  0
  8  9  1  0  0  0  0
  9 10  2  0  0  0  0
 10 11  1  0  0  0  0
 11 12  2  0  0  0  0
 12 13  1  0  0  0  0
 13 14  1  0  0  0  0
 14 15  1  0  0  0  0
 15 16  1  0  0  0  0
 16 17  1  0  0  0  0
 17 18  1  0  0  0  0
 18 19  2  0  0  0  0
 19 20  1  0  0  0  0
 20 21  2  0  0  0  0
 21 22  1  0  0  0  0
 22 23  1  0  0  0  0
 22 24  2  0  0  0  0
 17 25  1  0  0  0  0
 25 26  2  0  0  0  0
 25 27  1  0  0  0  0
  6 28  1  0  0  0  0
 28 29  2  0  0  0  0
 29  3  1  0  0  0  0
 12  8  1  0  0  0  0
 27 14  1  0  0  0  0
 24 18  1  0  0  0  0
  4 30  1  0  0  0  0
  5 31  1  0  0  0  0
  7 32  1  0  0  0  0
  7 33  1  0  0  0  0
  9 34  1  0  0  0  0
 11 35  1  0  0  0  0
 13 36  1  0  0  0  0
 13 37  1  0  0  0  0
 14 38  1  0  0  0  0
 15 39  1  0  0  0  0
 15 40  1  0  0  0  0
 16 41  1  0  0  0  0
 16 42  1  0  0  0  0
 19 43  1  0  0  0  0
 20 44  1  0  0  0  0
 21 45  1  0  0  0  0
 24 46  1  0  0  0  0
 27 47  1  0  0  0  0
 27 48  1  0  0  0  0
 28 49  1  0  0  0  0
 29 50  1  0  0  0  0
M  CHG  1  14   1
M  END
>  <docking-score>
-16.37

$$$$
1S63_778_2
foFlexX   03192112253D 1   1.00000     0.00000     0
FlexX 4.5.0 fol007
 50 53  0  0  0  0            999 V2000
   23.7123  136.5306   -2.6668 N   0  0  0  0  0  0  0  0  0  0  0  0
   22.7261  136.2572   -3.2067 C   0  0  0  0  0  0  0  0  0  0  0  0
   21.4308  135.8975   -3.9159 C   0  0  0  0  0  0  0  0  0  0  0  0
   20.3764  135.3640   -3.1815 C   0  0  0  0  0  0  0  0  0  0  0  0
   19.1850  135.0308   -3.8169 C   0  0  0  0  0  0  0  0  0  0  0  0
   19.0660  135.2375   -5.1874 C   0  0  0  0  0  0  0  0  0  0  0  0
   17.7819  134.8795   -5.8881 C   0  0  0  0  0  0  0  0  0  0  0  0
   17.5583  135.7536   -7.0492 N   0  0  0  0  0  0  0  0  0  0  0  0
   17.9895  135.5055   -8.3196 C   0  0  0  0  0  0  0  0  0  0  0  0
   17.5998  136.5064   -9.0782 N   0  0  0  0  0  0  0  0  0  0  0  0
   16.9173  137.4050   -8.3079 C   0  0  0  0  0  0  0  0  0  0  0  0
   16.8871  136.9377   -7.0264 C   0  0  0  0  0  0  0  0  0  0  0  0
   16.2360  137.5992   -5.8346 C   0  0  0  0  0  0  0  0  0  0  0  0
   14.8360  137.1894   -5.6685 N   0  3  1  0  0  0  0  0  0  0  0  0
   14.7314  135.8637   -6.3114 C   0  0  0  0  0  0  0  0  0  0  0  0
   14.0126  134.7748   -5.5169 C   0  0  0  0  0  0  0  0  0  0  0  0
   14.5210  134.7315   -4.1392 N   0  0  0  0  0  0  0  0  0  0  0  0
   14.7244  133.4948   -3.5145 C   0  0  0  0  0  0  0  0  0  0  0  0
   13.6494  132.6272   -3.3495 C   0  0  0  0  0  0  0  0  0  0  0  0
   13.8575  131.3994   -2.7296 C   0  0  0  0  0  0  0  0  0  0  0  0
   15.1209  131.0346   -2.2770 C   0  0  0  0  0  0  0  0  0  0  0  0
   16.1819  131.9171   -2.4526 C   0  0  0  0  0  0  0  0  0  0  0  0
   17.8066  131.4689   -1.8808 Cl  0  0  0  0  0  0  0  0  0  0  0  0
   15.9963  133.1499   -3.0696 C   0  0  0  0  0  0  0  0  0  0  0  0
   14.7875  135.9421   -3.4840 C   0  0  0  0  0  0  0  0  0  0  0  0
   15.2268  135.9391   -2.3425 O   0  0  0  0  0  0  0  0  0  0  0  0
   14.5435  137.2528   -4.2186 C   0  0  0  0  0  0  0  0  0  0  0  0
   20.1183  135.7700   -5.9249 C   0  0  0  0  0  0  0  0  0  0  0  0
   21.3088  136.1029   -5.2864 C   0  0  0  0  0  0  0  0  0  0  0  0
   20.4752  135.2201   -2.1968 H   0  0  0  0  0  0  0  0  0  0  0  0
   18.4231  134.6473   -3.2950 H   0  0  0  0  0  0  0  0  0  0  0  0
   17.0200  134.9826   -5.2488 H   0  0  0  0  0  0  0  0  0  0  0  0
   17.8312  133.9299   -6.1976 H   0  0  0  0  0  0  0  0  0  0  0  0
   18.5089  134.7056   -8.6201 H   0  0  0  0  0  0  0  0  0  0  0  0
   16.5093  138.2597   -8.6287 H   0  0  0  0  0  0  0  0  0  0  0  0
   16.2686  138.5909   -5.9591 H   0  0  0  0  0  0  0  0  0  0  0  0
   16.7444  137.3499   -5.0104 H   0  0  0  0  0  0  0  0  0  0  0  0
   14.2452  137.8360   -6.1512 H   0  0  0  0  0  0  0  0  0  0  0  0
   15.6599  135.5418   -6.4965 H   0  0  0  0  0  0  0  0  0  0  0  0
   14.2416  135.9828   -7.1751 H   0  0  0  0  0  0  0  0  0  0  0  0
   13.0321  134.9705   -5.5010 H   0  0  0  0  0  0  0  0  0  0  0  0
   14.1688  133.8893   -5.9544 H   0  0  0  0  0  0  0  0  0  0  0  0
   12.7383  132.8831   -3.6725 H   0  0  0  0  0  0  0  0  0  0  0  0
   13.0891  130.7712   -2.6080 H   0  0  0  0  0  0  0  0  0  0  0  0
   15.2646  130.1508   -1.8318 H   0  0  0  0  0  0  0  0  0  0  0  0
   16.7648  133.7779   -3.1915 H   0  0  0  0  0  0  0  0  0  0  0  0
   13.5831  137.5055   -4.1017 H   0  0  0  0  0  0  0  0  0  0  0  0
   15.1254  137.9560   -3.8102 H   0  0  0  0  0  0  0  0  0  0  0  0
   20.0196  135.9130   -6.9097 H   0  0  0  0  0  0  0  0  0  0  0  0
   22.0706  136.4867   -5.8084 H   0  0  0  0  0  0  0  0  0  0  0  0
  1  2  3  0  0  0  0
  2  3  1  0  0  0  0
  3  4  2  0  0  0  0
  4  5  1  0  0  0  0
  5  6  2  0  0  0  0
  6  7  1  0  0  0  0
  7  8  1  0  0  0  0
  8  9  1  0  0  0  0
  9 10  2  0  0  0  0
 10 11  1  0  0  0  0
 11 12  2  0  0  0  0
 12 13  1  0  0  0  0
 13 14  1  0  0  0  0
 14 15  1  0  0  0  0
 15 16  1  0  0  0  0
 16 17  1  0  0  0  0
 17 18  1  0  0  0  0
 18 19  2  0  0  0  0
 19 20  1  0  0  0  0
 20 21  2  0  0  0  0
 21 22  1  0  0  0  0
 22 23  1  0  0  0  0
 22 24  2  0  0  0  0
 17 25  1  0  0  0  0
 25 26  2  0  0  0  0
 25 27  1  0  0  0  0
  6 28  1  0  0  0  0
 28 29  2  0  0  0  0
 29  3  1  0  0  0  0
 12  8  1  0  0  0  0
 27 14  1  0  0  0  0
 24 18  1  0  0  0  0
  4 30  1  0  0  0  0
  5 31  1  0  0  0  0
  7 32  1  0  0  0  0
  7 33  1  0  0  0  0
  9 34  1  0  0  0  0
 11 35  1  0  0  0  0
 13 36  1  0  0  0  0
 13 37  1  0  0  0  0
 14 38  1  0  0  0  0
 15 39  1  0  0  0  0
 15 40  1  0  0  0  0
 16 41  1  0  0  0  0
 16 42  1  0  0  0  0
 19 43  1  0  0  0  0
 20 44  1  0  0  0  0
 21 45  1  0  0  0  0
 24 46  1  0  0  0  0
 27 47  1  0  0  0  0
 27 48  1  0  0  0  0
 28 49  1  0  0  0  0
 29 50  1  0  0  0  0
M  CHG  1  14   1
M  END
>  <docking-score>
-16.29

$$$$
1S63_778_3
foFlexX   03192112253D 1   1.00000     0.00000     0
FlexX 4.5.0 fol007
 50 53  0  0  0  0            999 V2000
   23.7086  136.5180   -2.6536 N   0  0  0  0  0  0  0  0  0  0  0  0
   22.7231  136.2416   -3.1933 C   0  0  0  0  0  0  0  0  0  0  0  0
   21.4283  135.8784   -3.9016 C   0  0  0  0  0  0  0  0  0  0  0  0
   20.4222  136.8326   -4.0156 C   0  0  0  0  0  0  0  0  0  0  0  0
   19.2324  136.5146   -4.6618 C   0  0  0  0  0  0  0  0  0  0  0  0
   19.0660  135.2375   -5.1874 C   0  0  0  0  0  0  0  0  0  0  0  0
   17.7819  134.8795   -5.8881 C   0  0  0  0  0  0  0  0  0  0  0  0
   17.5583  135.7536   -7.0492 N   0  0  0  0  0  0  0  0  0  0  0  0
   17.9895  135.5055   -8.3196 C   0  0  0  0  0  0  0  0  0  0  0  0
   17.5998  136.5064   -9.0782 N   0  0  0  0  0  0  0  0  0  0  0  0
   16.9173  137.4050   -8.3079 C   0  0  0  0  0  0  0  0  0  0  0  0
   16.8871  136.9377   -7.0264 C   0  0  0  0  0  0  0  0  0  0  0  0
   16.2360  137.5992   -5.8346 C   0  0  0  0  0  0  0  0  0  0  0  0
   14.8360  137.1894   -5.6685 N   0  3  1  0  0  0  0  0  0  0  0  0
   14.7314  135.8637   -6.3114 C   0  0  0  0  0  0  0  0  0  0  0  0
   14.0126  134.7748   -5.5169 C   0  0  0  0  0  0  0  0  0  0  0  0
   14.5210  134.7315   -4.1392 N   0  0  0  0  0  0  0  0  0  0  0  0
   14.7244  133.4948   -3.5145 C   0  0  0  0  0  0  0  0  0  0  0  0
   13.6494  132.6272   -3.3495 C   0  0  0  0  0  0  0  0  0  0  0  0
   13.8575  131.3994   -2.7296 C   0  0  0  0  0  0  0  0  0  0  0  0
   15.1209  131.0346   -2.2770 C   0  0  0  0  0  0  0  0  0  0  0  0
   16.1819  131.9171   -2.4526 C   0  0  0  0  0  0  0  0  0  0  0  0
   17.8066  131.4689   -1.8808 Cl  0  0  0  0  0  0  0  0  0  0  0  0
   15.9963  133.1499   -3.0696 C   0  0  0  0  0  0  0  0  0  0  0  0
   14.7875  135.9421   -3.4840 C   0  0  0  0  0  0  0  0  0  0  0  0
   15.2268  135.9391   -2.3425 O   0  0  0  0  0  0  0  0  0  0  0  0
   14.5435  137.2528   -4.2186 C   0  0  0  0  0  0  0  0  0  0  0  0
   20.0695  134.2808   -5.0747 C   0  0  0  0  0  0  0  0  0  0  0  0
   21.2589  134.6019   -4.4282 C   0  0  0  0  0  0  0  0  0  0  0  0
   20.5546  137.7470   -3.6330 H   0  0  0  0  0  0  0  0  0  0  0  0
   18.5054  137.1958   -4.7476 H   0  0  0  0  0  0  0  0  0  0  0  0
   17.0200  134.9826   -5.2488 H   0  0  0  0  0  0  0  0  0  0  0  0
   17.8312  133.9299   -6.1976 H   0  0  0  0  0  0  0  0  0  0  0  0
   18.5089  134.7056   -8.6201 H   0  0  0  0  0  0  0  0  0  0  0  0
   16.5093  138.2597   -8.6287 H   0  0  0  0  0  0  0  0  0  0  0  0
   16.2686  138.5909   -5.9591 H   0  0  0  0  0  0  0  0  0  0  0  0
   16.7444  137.3499   -5.0104 H   0  0  0  0  0  0  0  0  0  0  0  0
   14.2452  137.8360   -6.1512 H   0  0  0  0  0  0  0  0  0  0  0  0
   15.6599  135.5418   -6.4965 H   0  0  0  0  0  0  0  0  0  0  0  0
   14.2416  135.9828   -7.1751 H   0  0  0  0  0  0  0  0  0  0  0  0
   13.0321  134.9705   -5.5010 H   0  0  0  0  0  0  0  0  0  0  0  0
   14.1688  133.8893   -5.9544 H   0  0  0  0  0  0  0  0  0  0  0  0
   12.7383  132.8831   -3.6725 H   0  0  0  0  0  0  0  0  0  0  0  0
   13.0891  130.7712   -2.6080 H   0  0  0  0  0  0  0  0  0  0  0  0
   15.2646  130.1508   -1.8318 H   0  0  0  0  0  0  0  0  0  0  0  0
   16.7648  133.7779   -3.1915 H   0  0  0  0  0  0  0  0  0  0  0  0
   13.5831  137.5055   -4.1017 H   0  0  0  0  0  0  0  0  0  0  0  0
   15.1254  137.9560   -3.8102 H   0  0  0  0  0  0  0  0  0  0  0  0
   19.9366  133.3662   -5.4566 H   0  0  0  0  0  0  0  0  0  0  0  0
   21.9860  133.9207   -4.3427 H   0  0  0  0  0  0  0  0  0  0  0  0
  1  2  3  0  0  0  0
  2  3  1  0  0  0  0
  3  4  2  0  0  0  0
  4  5  1  0  0  0  0
  5  6  2  0  0  0  0
  6  7  1  0  0  0  0
  7  8  1  0  0  0  0
  8  9  1  0  0  0  0
  9 10  2  0  0  0  0
 10 11  1  0  0  0  0
 11 12  2  0  0  0  0
 12 13  1  0  0  0  0
 13 14  1  0  0  0  0
 14 15  1  0  0  0  0
 15 16  1  0  0  0  0
 16 17  1  0  0  0  0
 17 18  1  0  0  0  0
 18 19  2  0  0  0  0
 19 20  1  0  0  0  0
 20 21  2  0  0  0  0
 21 22  1  0  0  0  0
 22 23  1  0  0  0  0
 22 24  2  0  0  0  0
 17 25  1  0  0  0  0
 25 26  2  0  0  0  0
 25 27  1  0  0  0  0
  6 28  1  0  0  0  0
 28 29  2  0  0  0  0
 29  3  1  0  0  0  0
 12  8  1  0  0  0  0
 27 14  1  0  0  0  0
 24 18  1  0  0  0  0
  4 30  1  0  0  0  0
  5 31  1  0  0  0  0
  7 32  1  0  0  0  0
  7 33  1  0  0  0  0
  9 34  1  0  0  0  0
 11 35  1  0  0  0  0
 13 36  1  0  0  0  0
 13 37  1  0  0  0  0
 14 38  1  0  0  0  0
 15 39  1  0  0  0  0
 15 40  1  0  0  0  0
 16 41  1  0  0  0  0
 16 42  1  0  0  0  0
 19 43  1  0  0  0  0
 20 44  1  0  0  0  0
 21 45  1  0  0  0  0
 24 46  1  0  0  0  0
 27 47  1  0  0  0  0
 27 48  1  0  0  0  0
 28 49  1  0  0  0  0
 29 50  1  0  0  0  0
M  CHG  1  14   1
M  END
>  <docking-score>
-16.27

$$$$
3E37_ED5_1
foFlexX   03192112253D 1   1.00000     0.00000     0
FlexX 4.5.0 fol007
 85 88  0  0  0  0            999 V2000
   15.6584  128.2889   -4.0918 C   0  0  0  0  0  0  0  0  0  0  0  0
   15.9733  129.4123   -3.1173 C   0  0  0  0  0  0  0  0  0  0  0  0
   15.3306  129.4143   -1.8835 C   0  0  0  0  0  0  0  0  0  0  0  0
   15.6015  130.4312   -0.9745 C   0  0  0  0  0  0  0  0  0  0  0  0
   16.5080  131.4339   -1.3029 C   0  0  0  0  0  0  0  0  0  0  0  0
   17.1514  131.4336   -2.5363 C   0  0  0  0  0  0  0  0  0  0  0  0
   16.8799  130.4161   -3.4458 C   0  0  0  0  0  0  0  0  0  0  0  0
   17.7141  130.4320   -5.0216 S   0  0  0  0  0  0  0  0  0  0  0  0
   18.4794  129.1437   -5.1544 O   0  0  0  0  0  0  0  0  0  0  0  0
   16.7329  130.4856   -6.1573 O   0  0  0  0  0  0  0  0  0  0  0  0
   18.7966  131.8118   -5.1595 N   0  0  0  0  0  0  0  0  0  0  0  0
   18.1877  133.0010   -4.5319 C   0  0  0  0  0  0  0  0  0  0  0  0
   17.7878  134.0364   -5.5897 C   0  0  0  0  0  0  0  0  0  0  0  0
   16.6243  134.8187   -5.1463 N   0  0  0  0  0  0  0  0  0  0  0  0
   16.4451  136.2063   -5.5879 C   0  0  0  0  0  0  0  0  0  0  0  0
   17.2576  136.4809   -6.8199 C   0  0  0  0  0  0  0  0  0  0  0  0
   17.1306  135.8425   -8.0186 C   0  0  0  0  0  0  0  0  0  0  0  0
   18.0501  136.3933   -8.8612 N   0  0  0  0  0  0  0  0  0  0  0  0
   18.7115  137.3262   -8.2103 C   0  0  0  0  0  0  0  0  0  0  0  0
   18.2398  137.4130   -6.9374 N   0  0  0  0  0  0  0  0  0  0  0  0
   18.7066  138.3299   -5.8868 C   0  0  0  0  0  0  0  0  0  0  0  0
   15.5745  134.1733   -4.4816 C   0  0  0  0  0  0  0  0  0  0  0  0
   14.6318  133.4649   -5.2198 C   0  0  0  0  0  0  0  0  0  0  0  0
   13.5836  132.8196   -4.5724 C   0  0  0  0  0  0  0  0  0  0  0  0
   13.4944  132.8928   -3.1867 C   0  0  0  0  0  0  0  0  0  0  0  0
   12.4152  132.2282   -2.5049 C   0  0  0  0  0  0  0  0  0  0  0  0
   11.5481  131.6935   -1.9564 N   0  0  0  0  0  0  0  0  0  0  0  0
   14.4348  133.5995   -2.4440 C   0  0  0  0  0  0  0  0  0  0  0  0
   15.4815  134.2440   -3.0953 C   0  0  0  0  0  0  0  0  0  0  0  0
   20.1252  131.5117   -4.5789 C   0  0  0  0  0  0  0  0  0  0  0  0
   20.0447  131.3984   -3.0385 C   0  0  0  0  0  0  0  0  0  0  0  0
   21.3523  131.8202   -2.3876 C   0  0  0  0  0  0  0  0  0  0  0  0
   21.1637  131.9047   -0.8820 C   0  0  0  0  0  0  0  0  0  0  0  0
   19.9727  131.1539   -0.4512 N   0  0  0  0  0  0  0  0  0  0  0  0
   19.2752  131.6329    0.6570 C   0  0  0  0  0  0  0  0  0  0  0  0
   18.6541  130.8333    1.4085 O   0  0  0  0  0  0  0  0  0  0  0  0
   19.2691  133.0130    0.9191 O   0  0  0  0  0  0  0  0  0  0  0  0
   19.0632  133.6401    2.1929 C   0  0  0  0  0  0  0  0  0  0  0  0
   20.3576  133.6120    3.0281 C   0  0  0  0  0  0  0  0  0  0  0  0
   17.9830  132.8301    2.9262 C   0  0  0  0  0  0  0  0  0  0  0  0
   18.5650  135.0860    2.0102 C   0  0  0  0  0  0  0  0  0  0  0  0
   19.4672  129.9419   -1.1145 C   0  0  0  0  0  0  0  0  0  0  0  0
   19.7745  129.9679   -2.6018 C   0  0  0  0  0  0  0  0  0  0  0  0
   16.1887  128.4163   -4.9300 H   0  0  0  0  0  0  0  0  0  0  0  0
   15.8968  127.4110   -3.6767 H   0  0  0  0  0  0  0  0  0  0  0  0
   14.6825  128.3005   -4.3098 H   0  0  0  0  0  0  0  0  0  0  0  0
   14.6798  128.6911   -1.6524 H   0  0  0  0  0  0  0  0  0  0  0  0
   15.1448  130.4417   -0.0850 H   0  0  0  0  0  0  0  0  0  0  0  0
   16.6992  132.1627   -0.6454 H   0  0  0  0  0  0  0  0  0  0  0  0
   17.8022  132.1570   -2.7669 H   0  0  0  0  0  0  0  0  0  0  0  0
   18.8476  133.4133   -3.9037 H   0  0  0  0  0  0  0  0  0  0  0  0
   17.3732  132.7215   -4.0234 H   0  0  0  0  0  0  0  0  0  0  0  0
   17.5591  133.5634   -6.4405 H   0  0  0  0  0  0  0  0  0  0  0  0
   18.5569  134.6554   -5.7488 H   0  0  0  0  0  0  0  0  0  0  0  0
   16.7378  136.8234   -4.8575 H   0  0  0  0  0  0  0  0  0  0  0  0
   15.4786  136.3640   -5.7903 H   0  0  0  0  0  0  0  0  0  0  0  0
   16.4860  135.1101   -8.2377 H   0  0  0  0  0  0  0  0  0  0  0  0
   19.4473  137.8852   -8.5925 H   0  0  0  0  0  0  0  0  0  0  0  0
   18.1862  138.1687   -5.0483 H   0  0  0  0  0  0  0  0  0  0  0  0
   19.6782  138.1699   -5.7122 H   0  0  0  0  0  0  0  0  0  0  0  0
   18.5729  139.2749   -6.1856 H   0  0  0  0  0  0  0  0  0  0  0  0
   14.7079  133.4197   -6.2159 H   0  0  0  0  0  0  0  0  0  0  0  0
   12.9023  132.3093   -5.0971 H   0  0  0  0  0  0  0  0  0  0  0  0
   14.3588  133.6439   -1.4478 H   0  0  0  0  0  0  0  0  0  0  0  0
   16.1626  134.7546   -2.5705 H   0  0  0  0  0  0  0  0  0  0  0  0
   20.7606  132.2453   -4.8200 H   0  0  0  0  0  0  0  0  0  0  0  0
   20.4577  130.6462   -4.9534 H   0  0  0  0  0  0  0  0  0  0  0  0
   19.3083  131.9870   -2.7051 H   0  0  0  0  0  0  0  0  0  0  0  0
   21.6267  132.7150   -2.7400 H   0  0  0  0  0  0  0  0  0  0  0  0
   22.0616  131.1474   -2.5976 H   0  0  0  0  0  0  0  0  0  0  0  0
   21.9705  131.5235   -0.4304 H   0  0  0  0  0  0  0  0  0  0  0  0
   21.0571  132.8638   -0.6199 H   0  0  0  0  0  0  0  0  0  0  0  0
   21.0801  134.1013    2.5396 H   0  0  0  0  0  0  0  0  0  0  0  0
   20.1945  134.0527    3.9107 H   0  0  0  0  0  0  0  0  0  0  0  0
   20.6384  132.6637    3.1759 H   0  0  0  0  0  0  0  0  0  0  0  0
   18.2955  131.8875    3.0438 H   0  0  0  0  0  0  0  0  0  0  0  0
   17.8111  133.2386    3.8227 H   0  0  0  0  0  0  0  0  0  0  0  0
   17.1393  132.8371    2.3894 H   0  0  0  0  0  0  0  0  0  0  0  0
   17.7001  135.0797    1.5083 H   0  0  0  0  0  0  0  0  0  0  0  0
   18.4271  135.5069    2.9068 H   0  0  0  0  0  0  0  0  0  0  0  0
   19.2444  135.6103    1.4968 H   0  0  0  0  0  0  0  0  0  0  0  0
   18.4770  129.8874   -0.9860 H   0  0  0  0  0  0  0  0  0  0  0  0
   19.9012  129.1396   -0.7047 H   0  0  0  0  0  0  0  0  0  0  0  0
   20.5807  129.4054   -2.7855 H   0  0  0  0  0  0  0  0  0  0  0  0
   18.9929  129.6062   -3.1100 H   0  0  0  0  0  0  0  0  0  0  0  0
  1  2  1  0  0  0  0
  2  3  2  0  0  0  0
  3  4  1  0  0  0  0
  4  5  2  0  0  0  0
  5  6  1  0  0  0  0
  6  7  2  0  0  0  0
  7  8  1  0  0  0  0
  8  9  2  0  0  0  0
  8 10  2  0  0  0  0
  8 11  1  0  0  0  0
 11 12  1  0  0  0  0
 12 13  1  0  0  0  0
 13 14  1  0  0  0  0
 14 15  1  0  0  0  0
 15 16  1  0  0  0  0
 16 17  2  0  0  0  0
 17 18  1  0  0  0  0
 18 19  2  0  0  0  0
 19 20  1  0  0  0  0
 20 21  1  0  0  0  0
 14 22  1  0  0  0  0
 22 23  2  0  0  0  0
 23 24  1  0  0  0  0
 24 25  2  0  0  0  0
 25 26  1  0  0  0  0
 26 27  3  0  0  0  0
 25 28  1  0  0  0  0
 28 29  2  0  0  0  0
 11 30  1  0  0  0  0
 30 31  1  0  0  0  0
 31 32  1  0  0  0  0
 32 33  1  0  0  0  0
 33 34  1  0  0  0  0
 34 35  1  0  0  0  0
 35 36  2  0  0  0  0
 35 37  1  0  0  0  0
 37 38  1  0  0  0  0
 38 39  1  0  0  0  0
 38 40  1  0  0  0  0
 38 41  1  0  0  0  0
 34 42  1  0  0  0  0
 42 43  1  0  0  0  0
  7  2  1  0  0  0  0
 20 16  1  0  0  0  0
 29 22  1  0  0  0  0
 43 31  1  0  0  0  0
  1 44  1  0  0  0  0
  1 45  1  0  0  0  0
  1 46  1  0  0  0  0
  3 47  1  0  0  0  0
  4 48  1  0  0  0  0
  5 49  1  0  0  0  0
  6 50  1  0  0  0  0
 12 51  1  0  0  0  0
 12 52  1  0  0  0  0
 13 53  1  0  0  0  0
 13 54  1  0  0  0  0
 15 55  1  0  0  0  0
 15 56  1  0  0  0  0
 17 57  1  0  0  0  0
 19 58  1  0  0  0  0
 21 59  1  0  0  0  0
 21 60  1  0  0  0  0
 21 61  1  0  0  0  0
 23 62  1  0  0  0  0
 24 63  1  0  0  0  0
 28 64  1  0  0  0  0
 29 65  1  0  0  0  0
 30 66  1  0  0  0  0
 30 67  1  0  0  0  0
 31 68  1  0  0  0  0
 32 69  1  0  0  0  0
 32 70  1  0  0  0  0
 33 71  1  0  0  0  0
 33 72  1  0  0  0  0
 39 73  1  0  0  0  0
 39 74  1  0  0  0  0
 39 75  1  0  0  0  0
 40 76  1  0  0  0  0
 40 77  1  0  0  0  0
 40 78  1  0  0  0  0
 41 79  1  0  0  0  0
 41 80  1  0  0  0  0
 41 81  1  0  0  0  0
 42 82  1  0  0  0  0
 42 83  1  0  0  0  0
 43 84  1  0  0  0  0
 43 85  1  0  0  0  0
M  END
>  <docking-score>
-15.62

$$$$
3E37_ED5_2
foFlexX   03192112253D 1   1.00000     0.00000     0
FlexX 4.5.0 fol007
 85 88  0  0  0  0            999 V2000
   24.2708  132.6440   -3.2907 C   0  0  0  0  0  0  0  0  0  0  0  0
   23.1175  131.7479   -3.7121 C   0  0  0  0  0  0  0  0  0  0  0  0
   23.4023  130.4383   -4.0850 C   0  0  0  0  0  0  0  0  0  0  0  0
   22.3646  129.5986   -4.4747 C   0  0  0  0  0  0  0  0  0  0  0  0
   21.0562  130.0708   -4.4890 C   0  0  0  0  0  0  0  0  0  0  0  0
   20.7696  131.3802   -4.1166 C   0  0  0  0  0  0  0  0  0  0  0  0
   21.8082  132.2202   -3.7270 C   0  0  0  0  0  0  0  0  0  0  0  0
   21.4219  133.8952   -3.2529 S   0  0  0  0  0  0  0  0  0  0  0  0
   21.9047  134.1013   -1.8431 O   0  0  0  0  0  0  0  0  0  0  0  0
   22.1431  134.8872   -4.1196 O   0  0  0  0  0  0  0  0  0  0  0  0
   19.6953  134.2115   -3.3681 N   0  0  0  0  0  0  0  0  0  0  0  0
   19.3518  134.6711   -4.7281 C   0  0  0  0  0  0  0  0  0  0  0  0
   18.0954  133.9616   -5.2468 C   0  0  0  0  0  0  0  0  0  0  0  0
   16.8824  134.7129   -4.8911 N   0  0  0  0  0  0  0  0  0  0  0  0
   16.6923  136.0898   -5.3605 C   0  0  0  0  0  0  0  0  0  0  0  0
   17.5764  136.3762   -6.5393 C   0  0  0  0  0  0  0  0  0  0  0  0
   17.5484  135.7221   -7.7358 C   0  0  0  0  0  0  0  0  0  0  0  0
   18.5053  136.2917   -8.5224 N   0  0  0  0  0  0  0  0  0  0  0  0
   19.0941  137.2508   -7.8405 C   0  0  0  0  0  0  0  0  0  0  0  0
   18.5365  137.3363   -6.6028 N   0  0  0  0  0  0  0  0  0  0  0  0
   18.9051  138.2776   -5.5349 C   0  0  0  0  0  0  0  0  0  0  0  0
   15.8102  134.0429   -4.2895 C   0  0  0  0  0  0  0  0  0  0  0  0
   14.9400  133.2989   -5.0799 C   0  0  0  0  0  0  0  0  0  0  0  0
   13.8705  132.6289   -4.4954 C   0  0  0  0  0  0  0  0  0  0  0  0
   13.6871  132.7134   -3.1196 C   0  0  0  0  0  0  0  0  0  0  0  0
   12.5850  132.0236   -2.5028 C   0  0  0  0  0  0  0  0  0  0  0  0
   11.6995  131.4686   -2.0064 N   0  0  0  0  0  0  0  0  0  0  0  0
   14.5548  133.4558   -2.3250 C   0  0  0  0  0  0  0  0  0  0  0  0
   15.6231  134.1249   -2.9134 C   0  0  0  0  0  0  0  0  0  0  0  0
   18.9046  133.0208   -2.9816 C   0  0  0  0  0  0  0  0  0  0  0  0
   18.5994  133.0258   -1.4653 C   0  0  0  0  0  0  0  0  0  0  0  0
   17.7867  131.8030   -1.0650 C   0  0  0  0  0  0  0  0  0  0  0  0
   17.7134  131.7467    0.4529 C   0  0  0  0  0  0  0  0  0  0  0  0
   17.7287  133.1252    0.9508 N   0  0  0  0  0  0  0  0  0  0  0  0
   18.3871  133.4768    2.1390 C   0  0  0  0  0  0  0  0  0  0  0  0
   18.4916  132.6402    3.0766 O   0  0  0  0  0  0  0  0  0  0  0  0
   18.9198  134.7700    2.2706 O   0  0  0  0  0  0  0  0  0  0  0  0
   20.0017  135.1656    3.1258 C   0  0  0  0  0  0  0  0  0  0  0  0
   21.1110  134.0964    3.1287 C   0  0  0  0  0  0  0  0  0  0  0  0
   19.4318  135.2920    4.5470 C   0  0  0  0  0  0  0  0  0  0  0  0
   20.5642  136.5317    2.6901 C   0  0  0  0  0  0  0  0  0  0  0  0
   17.0135  134.0668    0.0864 C   0  0  0  0  0  0  0  0  0  0  0  0
   17.8856  134.3247   -1.1299 C   0  0  0  0  0  0  0  0  0  0  0  0
   23.9196  133.5495   -3.0525 H   0  0  0  0  0  0  0  0  0  0  0  0
   24.7301  132.2451   -2.4970 H   0  0  0  0  0  0  0  0  0  0  0  0
   24.9215  132.7269   -4.0455 H   0  0  0  0  0  0  0  0  0  0  0  0
   24.3447  130.1038   -4.0730 H   0  0  0  0  0  0  0  0  0  0  0  0
   22.5588  128.6555   -4.7446 H   0  0  0  0  0  0  0  0  0  0  0  0
   20.3138  129.4627   -4.7700 H   0  0  0  0  0  0  0  0  0  0  0  0
   19.8271  131.7141   -4.1287 H   0  0  0  0  0  0  0  0  0  0  0  0
   20.1158  134.4742   -5.3425 H   0  0  0  0  0  0  0  0  0  0  0  0
   19.1858  135.6570   -4.7079 H   0  0  0  0  0  0  0  0  0  0  0  0
   18.0449  133.0483   -4.8426 H   0  0  0  0  0  0  0  0  0  0  0  0
   18.1514  133.8829   -6.2422 H   0  0  0  0  0  0  0  0  0  0  0  0
   16.9174  136.7230   -4.6199 H   0  0  0  0  0  0  0  0  0  0  0  0
   15.7371  136.2162   -5.6283 H   0  0  0  0  0  0  0  0  0  0  0  0
   16.9416  134.9683   -7.9881 H   0  0  0  0  0  0  0  0  0  0  0  0
   19.8370  137.8278   -8.1799 H   0  0  0  0  0  0  0  0  0  0  0  0
   18.3350  138.1093   -4.7307 H   0  0  0  0  0  0  0  0  0  0  0  0
   19.8672  138.1487   -5.2944 H   0  0  0  0  0  0  0  0  0  0  0  0
   18.7638  139.2150   -5.8534 H   0  0  0  0  0  0  0  0  0  0  0  0
   15.0835  133.2457   -6.0681 H   0  0  0  0  0  0  0  0  0  0  0  0
   13.2409  132.0928   -5.0578 H   0  0  0  0  0  0  0  0  0  0  0  0
   14.4114  133.5081   -1.3367 H   0  0  0  0  0  0  0  0  0  0  0  0
   16.2524  134.6612   -2.3509 H   0  0  0  0  0  0  0  0  0  0  0  0
   19.4232  132.1964   -3.2080 H   0  0  0  0  0  0  0  0  0  0  0  0
   18.0426  133.0221   -3.4885 H   0  0  0  0  0  0  0  0  0  0  0  0
   19.4670  133.0049   -0.9685 H   0  0  0  0  0  0  0  0  0  0  0  0
   18.2289  130.9759   -1.4120 H   0  0  0  0  0  0  0  0  0  0  0  0
   16.8642  131.8722   -1.4447 H   0  0  0  0  0  0  0  0  0  0  0  0
   16.8694  131.2914    0.7365 H   0  0  0  0  0  0  0  0  0  0  0  0
   18.4999  131.2454    0.8136 H   0  0  0  0  0  0  0  0  0  0  0  0
   21.4604  133.9760    2.1995 H   0  0  0  0  0  0  0  0  0  0  0  0
   21.8550  134.3895    3.7292 H   0  0  0  0  0  0  0  0  0  0  0  0
   20.7376  133.2296    3.4593 H   0  0  0  0  0  0  0  0  0  0  0  0
   19.0584  134.4105    4.8359 H   0  0  0  0  0  0  0  0  0  0  0  0
   20.1597  135.5676    5.1748 H   0  0  0  0  0  0  0  0  0  0  0  0
   18.7063  135.9802    4.5552 H   0  0  0  0  0  0  0  0  0  0  0  0
   19.8417  137.2213    2.7412 H   0  0  0  0  0  0  0  0  0  0  0  0
   21.3161  136.7913    3.2962 H   0  0  0  0  0  0  0  0  0  0  0  0
   20.8999  136.4696    1.7502 H   0  0  0  0  0  0  0  0  0  0  0  0
   16.8496  134.9230    0.5765 H   0  0  0  0  0  0  0  0  0  0  0  0
   16.1394  133.6728   -0.1978 H   0  0  0  0  0  0  0  0  0  0  0  0
   17.3183  134.6115   -1.9018 H   0  0  0  0  0  0  0  0  0  0  0  0
   18.5549  135.0387   -0.9246 H   0  0  0  0  0  0  0  0  0  0  0  0
  1  2  1  0  0  0  0
  2  3  2  0  0  0  0
  3  4  1  0  0  0  0
  4  5  2  0  0  0  0
  5  6  1  0  0  0  0
  6  7  2  0  0  0  0
  7  8  1  0  0  0  0
  8  9  2  0  0  0  0
  8 10  2  0  0  0  0
  8 11  1  0  0  0  0
 11 12  1  0  0  0  0
 12 13  1  0  0  0  0
 13 14  1  0  0  0  0
 14 15  1  0  0  0  0
 15 16  1  0  0  0  0
 16 17  2  0  0  0  0
 17 18  1  0  0  0  0
 18 19  2  0  0  0  0
 19 20  1  0  0  0  0
 20 21  1  0  0  0  0
 14 22  1  0  0  0  0
 22 23  2  0  0  0  0
 23 24  1  0  0  0  0
 24 25  2  0  0  0  0
 25 26  1  0  0  0  0
 26 27  3  0  0  0  0
 25 28  1  0  0  0  0
 28 29  2  0  0  0  0
 11 30  1  0  0  0  0
 30 31  1  0  0  0  0
 31 32  1  0  0  0  0
 32 33  1  0  0  0  0
 33 34  1  0  0  0  0
 34 35  1  0  0  0  0
 35 36  2  0  0  0  0
 35 37  1  0  0  0  0
 37 38  1  0  0  0  0
 38 39  1  0  0  0  0
 38 40  1  0  0  0  0
 38 41  1  0  0  0  0
 34 42  1  0  0  0  0
 42 43  1  0  0  0  0
  7  2  1  0  0  0  0
 20 16  1  0  0  0  0
 29 22  1  0  0  0  0
 43 31  1  0  0  0  0
  1 44  1  0  0  0  0
  1 45  1  0  0  0  0
  1 46  1  0  0  0  0
  3 47  1  0  0  0  0
  4 48  1  0  0  0  0
  5 49  1  0  0  0  0
  6 50  1  0  0  0  0
 12 51  1  0  0  0  0
 12 52  1  0  0  0  0
 13 53  1  0  0  0  0
 13 54  1  0  0  0  0
 15 55  1  0  0  0  0
 15 56  1  0  0  0  0
 17 57  1  0  0  0  0
 19 58  1  0  0  0  0
 21 59  1  0  0  0  0
 21 60  1  0  0  0  0
 21 61  1  0  0  0  0
 23 62  1  0  0  0  0
 24 63  1  0  0  0  0
 28 64  1  0  0  0  0
 29 65  1  0  0  0  0
 30 66  1  0  0  0  0
 30 67  1  0  0  0  0
 31 68  1  0  0  0  0
 32 69  1  0  0  0  0
 32 70  1  0  0  0  0
 33 71  1  0  0  0  0
 33 72  1  0  0  0  0
 39 73  1  0  0  0  0
 39 74  1  0  0  0  0
 39 75  1  0  0  0  0
 40 76  1  0  0  0  0
 40 77  1  0  0  0  0
 40 78  1  0  0  0  0
 41 79  1  0  0  0  0
 41 80  1  0  0  0  0
 41 81  1  0  0  0  0
 42 82  1  0  0  0  0
 42 83  1  0  0  0  0
 43 84  1  0  0  0  0
 43 85  1  0  0  0  0
M  END
>  <docking-score>
-14.14

$$$$
3E37_ED5_3
foFlexX   03192112253D 1   1.00000     0.00000     0
FlexX 4.5.0 fol007
 85 88  0  0  0  0            999 V2000
   24.2917  132.6127   -3.3343 C   0  0  0  0  0  0  0  0  0  0  0  0
   23.1343  131.7207   -3.7533 C   0  0  0  0  0  0  0  0  0  0  0  0
   23.4144  130.4119   -4.1327 C   0  0  0  0  0  0  0  0  0  0  0  0
   22.3729  129.5759   -4.5204 C   0  0  0  0  0  0  0  0  0  0  0  0
   21.0656  130.0510   -4.5263 C   0  0  0  0  0  0  0  0  0  0  0  0
   20.7836  131.3595   -4.1474 C   0  0  0  0  0  0  0  0  0  0  0  0
   21.8260  132.1958   -3.7598 C   0  0  0  0  0  0  0  0  0  0  0  0
   21.4456  133.8697   -3.2773 S   0  0  0  0  0  0  0  0  0  0  0  0
   21.9360  134.0694   -1.8692 O   0  0  0  0  0  0  0  0  0  0  0  0
   22.1647  134.8636   -4.1439 O   0  0  0  0  0  0  0  0  0  0  0  0
   19.7191  134.1902   -3.3826 N   0  0  0  0  0  0  0  0  0  0  0  0
   19.3698  134.6558   -4.7391 C   0  0  0  0  0  0  0  0  0  0  0  0
   18.1093  133.9509   -5.2542 C   0  0  0  0  0  0  0  0  0  0  0  0
   16.8998  134.7034   -4.8895 N   0  0  0  0  0  0  0  0  0  0  0  0
   16.7102  136.0826   -5.3526 C   0  0  0  0  0  0  0  0  0  0  0  0
   17.5891  136.3716   -6.5347 C   0  0  0  0  0  0  0  0  0  0  0  0
   17.5536  135.7222   -7.7336 C   0  0  0  0  0  0  0  0  0  0  0  0
   18.5078  136.2928   -8.5228 N   0  0  0  0  0  0  0  0  0  0  0  0
   19.1021  137.2480   -7.8402 C   0  0  0  0  0  0  0  0  0  0  0  0
   18.5508  137.3299   -6.5994 N   0  0  0  0  0  0  0  0  0  0  0  0
   18.9269  138.2663   -5.5298 C   0  0  0  0  0  0  0  0  0  0  0  0
   15.8291  134.0335   -4.2850 C   0  0  0  0  0  0  0  0  0  0  0  0
   14.9534  133.2943   -5.0738 C   0  0  0  0  0  0  0  0  0  0  0  0
   13.8854  132.6244   -4.4866 C   0  0  0  0  0  0  0  0  0  0  0  0
   13.7092  132.7040   -3.1096 C   0  0  0  0  0  0  0  0  0  0  0  0
   12.6087  132.0141   -2.4898 C   0  0  0  0  0  0  0  0  0  0  0  0
   11.7244  131.4591   -1.9911 N   0  0  0  0  0  0  0  0  0  0  0  0
   14.5824  133.4415   -2.3165 C   0  0  0  0  0  0  0  0  0  0  0  0
   15.6492  134.1105   -2.9077 C   0  0  0  0  0  0  0  0  0  0  0  0
   18.9279  132.9997   -2.9967 C   0  0  0  0  0  0  0  0  0  0  0  0
   18.6304  132.9995   -1.4789 C   0  0  0  0  0  0  0  0  0  0  0  0
   17.8441  134.2500   -1.1399 C   0  0  0  0  0  0  0  0  0  0  0  0
   16.9950  134.0161    0.0974 C   0  0  0  0  0  0  0  0  0  0  0  0
   17.7321  133.0870    0.9612 N   0  0  0  0  0  0  0  0  0  0  0  0
   18.3222  133.4807    2.1711 C   0  0  0  0  0  0  0  0  0  0  0  0
   18.4356  132.6561    3.1182 O   0  0  0  0  0  0  0  0  0  0  0  0
   18.7768  134.8022    2.3140 O   0  0  0  0  0  0  0  0  0  0  0  0
   19.8005  135.2618    3.2080 C   0  0  0  0  0  0  0  0  0  0  0  0
   20.9663  134.2559    3.2623 C   0  0  0  0  0  0  0  0  0  0  0  0
   19.1686  135.3636    4.6047 C   0  0  0  0  0  0  0  0  0  0  0  0
   20.3032  136.6548    2.7846 C   0  0  0  0  0  0  0  0  0  0  0  0
   17.7534  131.7120    0.4500 C   0  0  0  0  0  0  0  0  0  0  0  0
   17.8190  131.7785   -1.0672 C   0  0  0  0  0  0  0  0  0  0  0  0
   23.9436  133.5179   -3.0908 H   0  0  0  0  0  0  0  0  0  0  0  0
   24.7541  132.2098   -2.5445 H   0  0  0  0  0  0  0  0  0  0  0  0
   24.9387  132.6971   -4.0921 H   0  0  0  0  0  0  0  0  0  0  0  0
   24.3561  130.0753   -4.1268 H   0  0  0  0  0  0  0  0  0  0  0  0
   22.5638  128.6334   -4.7949 H   0  0  0  0  0  0  0  0  0  0  0  0
   20.3204  129.4455   -4.8058 H   0  0  0  0  0  0  0  0  0  0  0  0
   19.8418  131.6955   -4.1535 H   0  0  0  0  0  0  0  0  0  0  0  0
   20.1303  134.4596   -5.3581 H   0  0  0  0  0  0  0  0  0  0  0  0
   19.2061  135.6420   -4.7143 H   0  0  0  0  0  0  0  0  0  0  0  0
   18.0589  133.0362   -4.8532 H   0  0  0  0  0  0  0  0  0  0  0  0
   18.1602  133.8760   -6.2501 H   0  0  0  0  0  0  0  0  0  0  0  0
   16.9404  136.7124   -4.6108 H   0  0  0  0  0  0  0  0  0  0  0  0
   15.7540  136.2121   -5.6151 H   0  0  0  0  0  0  0  0  0  0  0  0
   16.9439  134.9707   -7.9858 H   0  0  0  0  0  0  0  0  0  0  0  0
   19.8444  137.8248   -8.1812 H   0  0  0  0  0  0  0  0  0  0  0  0
   18.3605  138.0961   -4.7234 H   0  0  0  0  0  0  0  0  0  0  0  0
   19.8898  138.1345   -5.2946 H   0  0  0  0  0  0  0  0  0  0  0  0
   18.7860  139.2052   -5.8439 H   0  0  0  0  0  0  0  0  0  0  0  0
   15.0918  133.2447   -6.0630 H   0  0  0  0  0  0  0  0  0  0  0  0
   13.2518  132.0918   -5.0479 H   0  0  0  0  0  0  0  0  0  0  0  0
   14.4441  133.4903   -1.3273 H   0  0  0  0  0  0  0  0  0  0  0  0
   16.2824  134.6434   -2.3464 H   0  0  0  0  0  0  0  0  0  0  0  0
   19.4436  132.1751   -3.2288 H   0  0  0  0  0  0  0  0  0  0  0  0
   18.0634  133.0048   -3.4993 H   0  0  0  0  0  0  0  0  0  0  0  0
   19.4937  133.0066   -0.9742 H   0  0  0  0  0  0  0  0  0  0  0  0
   17.2496  134.4850   -1.9089 H   0  0  0  0  0  0  0  0  0  0  0  0
   18.4792  135.0028   -0.9672 H   0  0  0  0  0  0  0  0  0  0  0  0
   16.8419  134.8806    0.5762 H   0  0  0  0  0  0  0  0  0  0  0  0
   16.1149  133.6180   -0.1614 H   0  0  0  0  0  0  0  0  0  0  0  0
   21.3583  134.1503    2.3484 H   0  0  0  0  0  0  0  0  0  0  0  0
   21.6685  134.5931    3.8894 H   0  0  0  0  0  0  0  0  0  0  0  0
   20.6286  133.3714    3.5844 H   0  0  0  0  0  0  0  0  0  0  0  0
   18.8334  134.4642    4.8853 H   0  0  0  0  0  0  0  0  0  0  0  0
   19.8548  135.6825    5.2585 H   0  0  0  0  0  0  0  0  0  0  0  0
   18.4063  136.0104    4.5794 H   0  0  0  0  0  0  0  0  0  0  0  0
   19.5422  137.3033    2.8022 H   0  0  0  0  0  0  0  0  0  0  0  0
   21.0150  136.9589    3.4178 H   0  0  0  0  0  0  0  0  0  0  0  0
   20.6788  136.6065    1.8591 H   0  0  0  0  0  0  0  0  0  0  0  0
   16.9237  131.2312    0.7334 H   0  0  0  0  0  0  0  0  0  0  0  0
   18.5552  131.2304    0.8039 H   0  0  0  0  0  0  0  0  0  0  0  0
   18.2566  130.9514   -1.4198 H   0  0  0  0  0  0  0  0  0  0  0  0
   16.8936  131.8506   -1.4393 H   0  0  0  0  0  0  0  0  0  0  0  0
  1  2  1  0  0  0  0
  2  3  2  0  0  0  0
  3  4  1  0  0  0  0
  4  5  2  0  0  0  0
  5  6  1  0  0  0  0
  6  7  2  0  0  0  0
  7  8  1  0  0  0  0
  8  9  2  0  0  0  0
  8 10  2  0  0  0  0
  8 11  1  0  0  0  0
 11 12  1  0  0  0  0
 12 13  1  0  0  0  0
 13 14  1  0  0  0  0
 14 15  1  0  0  0  0
 15 16  1  0  0  0  0
 16 17  2  0  0  0  0
 17 18  1  0  0  0  0
 18 19  2  0  0  0  0
 19 20  1  0  0  0  0
 20 21  1  0  0  0  0
 14 22  1  0  0  0  0
 22 23  2  0  0  0  0
 23 24  1  0  0  0  0
 24 25  2  0  0  0  0
 25 26  1  0  0  0  0
 26 27  3  0  0  0  0
 25 28  1  0  0  0  0
 28 29  2  0  0  0  0
 11 30  1  0  0  0  0
 30 31  1  0  0  0  0
 31 32  1  0  0  0  0
 32 33  1  0  0  0  0
 33 34  1  0  0  0  0
 34 35  1  0  0  0  0
 35 36  2  0  0  0  0
 35 37  1  0  0  0  0
 37 38  1  0  0  0  0
 38 39  1  0  0  0  0
 38 40  1  0  0  0  0
 38 41  1  0  0  0  0
 34 42  1  0  0  0  0
 42 43  1  0  0  0  0
  7  2  1  0  0  0  0
 20 16  1  0  0  0  0
 29 22  1  0  0  0  0
 43 31  1  0  0  0  0
  1 44  1  0  0  0  0
  1 45  1  0  0  0  0
  1 46  1  0  0  0  0
  3 47  1  0  0  0  0
  4 48  1  0  0  0  0
  5 49  1  0  0  0  0
  6 50  1  0  0  0  0
 12 51  1  0  0  0  0
 12 52  1  0  0  0  0
 13 53  1  0  0  0  0
 13 54  1  0  0  0  0
 15 55  1  0  0  0  0
 15 56  1  0  0  0  0
 17 57  1  0  0  0  0
 19 58  1  0  0  0  0
 21 59  1  0  0  0  0
 21 60  1  0  0  0  0
 21 61  1  0  0  0  0
 23 62  1  0  0  0  0
 24 63  1  0  0  0  0
 28 64  1  0  0  0  0
 29 65  1  0  0  0  0
 30 66  1  0  0  0  0
 30 67  1  0  0  0  0
 31 68  1  0  0  0  0
 32 69  1  0  0  0  0
 32 70  1  0  0  0  0
 33 71  1  0  0  0  0
 33 72  1  0  0  0  0
 39 73  1  0  0  0  0
 39 74  1  0  0  0  0
 39 75  1  0  0  0  0
 40 76  1  0  0  0  0
 40 77  1  0  0  0  0
 40 78  1  0  0  0  0
 41 79  1  0  0  0  0
 41 80  1  0  0  0  0
 41 81  1  0  0  0  0
 42 82  1  0  0  0  0
 42 83  1  0  0  0  0
 43 84  1  0  0  0  0
 43 85  1  0  0  0  0
M  END
>  <docking-score>
-13.82

$$$$
2IEJ_S48_1
foFlexX   03192112253D 1   1.00000     0.00000     0
FlexX 4.5.0 fol007
 68 72  0  0  0  0            999 V2000
   13.1477  136.2840  -11.7350 C   0  0  0  0  0  0  0  0  0  0  0  0
   13.6931  136.8387  -10.5444 O   0  0  0  0  0  0  0  0  0  0  0  0
   13.6938  136.1517   -9.3268 C   0  0  0  0  0  0  0  0  0  0  0  0
   12.8999  135.1915   -9.1306 O   0  0  0  0  0  0  0  0  0  0  0  0
   14.6791  136.5267   -8.2652 C   0  0  0  0  0  0  0  0  0  0  0  0
   15.0643  135.3396   -7.4702 N   0  0  0  0  0  0  0  0  0  0  0  0
   14.8113  135.4582   -6.0254 C   0  0  2  0  0  0  0  0  0  0  0  0
   16.0041  136.1603   -5.3970 C   0  0  0  0  0  0  0  0  0  0  0  0
   15.7216  136.1876   -3.9059 C   0  0  0  0  0  0  0  0  0  0  0  0
   15.9427  137.3502   -3.1766 C   0  0  0  0  0  0  0  0  0  0  0  0
   15.6358  137.3518   -1.8188 C   0  0  0  0  0  0  0  0  0  0  0  0
   15.8227  138.5726   -1.0586 C   0  0  0  0  0  0  0  0  0  0  0  0
   15.0044  138.8286    0.0363 C   0  0  0  0  0  0  0  0  0  0  0  0
   15.1886  140.0016    0.7607 C   0  0  0  0  0  0  0  0  0  0  0  0
   16.1786  140.9069    0.3953 C   0  0  0  0  0  0  0  0  0  0  0  0
   16.9923  140.6425   -0.7018 C   0  0  0  0  0  0  0  0  0  0  0  0
   16.8158  139.4723   -1.4325 C   0  0  0  0  0  0  0  0  0  0  0  0
   15.1460  136.2112   -1.1914 C   0  0  0  0  0  0  0  0  0  0  0  0
   14.9575  135.0594   -1.9493 C   0  0  0  0  0  0  0  0  0  0  0  0
   15.2414  135.0255   -3.3102 C   0  0  0  0  0  0  0  0  0  0  0  0
   15.0468  133.8793   -4.1040 N   0  0  0  0  0  0  0  0  0  0  0  0
   15.3016  132.5197   -3.5969 C   0  0  0  0  0  0  0  0  0  0  0  0
   14.0085  131.8351   -3.1819 C   0  0  0  0  0  0  0  0  0  0  0  0
   12.7581  132.3739   -3.2633 C   0  0  0  0  0  0  0  0  0  0  0  0
   11.8892  131.4337   -2.7942 N   0  0  0  0  0  0  0  0  0  0  0  0
   12.5740  130.3672   -2.4407 C   0  0  0  0  0  0  0  0  0  0  0  0
   13.8972  130.5790   -2.6744 N   0  0  0  0  0  0  0  0  0  0  0  0
   14.9974  129.6372   -2.4196 C   0  0  0  0  0  0  0  0  0  0  0  0
   14.5465  134.0638   -5.4764 C   0  0  0  0  0  0  0  0  0  0  0  0
   16.7264  134.8770   -7.7983 S   0  0  0  0  0  0  0  0  0  0  0  0
   16.8187  134.1029   -9.0839 O   0  0  0  0  0  0  0  0  0  0  0  0
   17.2699  134.0248   -6.6846 O   0  0  0  0  0  0  0  0  0  0  0  0
   17.7242  136.3094   -7.9649 C   0  0  0  0  0  0  0  0  0  0  0  0
   18.2239  137.0426   -6.9326 C   0  0  0  0  0  0  0  0  0  0  0  0
   18.9300  138.0505   -7.5094 N   0  0  0  0  0  0  0  0  0  0  0  0
   19.6604  139.1081   -6.7964 C   0  0  0  0  0  0  0  0  0  0  0  0
   18.8485  137.9135   -8.8611 C   0  0  0  0  0  0  0  0  0  0  0  0
   18.1197  136.8601   -9.1477 N   0  0  0  0  0  0  0  0  0  0  0  0
   12.1776  136.0850  -11.5960 H   0  0  0  0  0  0  0  0  0  0  0  0
   13.2498  136.9378  -12.4846 H   0  0  0  0  0  0  0  0  0  0  0  0
   13.6322  135.4390  -11.9614 H   0  0  0  0  0  0  0  0  0  0  0  0
   14.2670  137.2080   -7.6602 H   0  0  0  0  0  0  0  0  0  0  0  0
   15.4949  136.9131   -8.6956 H   0  0  0  0  0  0  0  0  0  0  0  0
   13.9959  136.0201   -5.8857 H   0  0  0  0  0  0  0  0  0  0  0  0
   16.8457  135.6536   -5.5837 H   0  0  0  0  0  0  0  0  0  0  0  0
   16.0892  137.0908   -5.7534 H   0  0  0  0  0  0  0  0  0  0  0  0
   16.3140  138.1673   -3.6176 H   0  0  0  0  0  0  0  0  0  0  0  0
   14.2925  138.1776    0.2994 H   0  0  0  0  0  0  0  0  0  0  0  0
   14.6053  140.1950    1.5495 H   0  0  0  0  0  0  0  0  0  0  0  0
   16.3056  141.7480    0.9210 H   0  0  0  0  0  0  0  0  0  0  0  0
   17.7041  141.2938   -0.9650 H   0  0  0  0  0  0  0  0  0  0  0  0
   17.3989  139.2789   -2.2215 H   0  0  0  0  0  0  0  0  0  0  0  0
   14.9334  136.2186   -0.2143 H   0  0  0  0  0  0  0  0  0  0  0  0
   14.6088  134.2348   -1.5037 H   0  0  0  0  0  0  0  0  0  0  0  0
   15.9095  132.5758   -2.8049 H   0  0  0  0  0  0  0  0  0  0  0  0
   15.7398  131.9804   -4.3160 H   0  0  0  0  0  0  0  0  0  0  0  0
   12.5234  133.2849   -3.6023 H   0  0  0  0  0  0  0  0  0  0  0  0
   12.1822  129.5300   -2.0591 H   0  0  0  0  0  0  0  0  0  0  0  0
   15.8654  130.0606   -2.6789 H   0  0  0  0  0  0  0  0  0  0  0  0
   15.0177  129.4035   -1.4475 H   0  0  0  0  0  0  0  0  0  0  0  0
   14.8572  128.8070   -2.9592 H   0  0  0  0  0  0  0  0  0  0  0  0
   13.5596  133.9024   -5.4799 H   0  0  0  0  0  0  0  0  0  0  0  0
   14.9954  133.3970   -6.0712 H   0  0  0  0  0  0  0  0  0  0  0  0
   18.0979  136.8748   -5.9549 H   0  0  0  0  0  0  0  0  0  0  0  0
   20.0936  139.7190   -7.4591 H   0  0  0  0  0  0  0  0  0  0  0  0
   19.0228  139.6296   -6.2295 H   0  0  0  0  0  0  0  0  0  0  0  0
   20.3620  138.6952   -6.2155 H   0  0  0  0  0  0  0  0  0  0  0  0
   19.2766  138.5203   -9.5308 H   0  0  0  0  0  0  0  0  0  0  0  0
  1  2  1  0  0  0  0
  2  3  1  0  0  0  0
  3  4  2  0  0  0  0
  3  5  1  0  0  0  0
  5  6  1  0  0  0  0
  6  7  1  0  0  0  0
  7  8  1  0  0  0  0
  8  9  1  0  0  0  0
  9 10  2  0  0  0  0
 10 11  1  0  0  0  0
 11 12  1  0  0  0  0
 12 13  2  0  0  0  0
 13 14  1  0  0  0  0
 14 15  2  0  0  0  0
 15 16  1  0  0  0  0
 16 17  2  0  0  0  0
 11 18  2  0  0  0  0
 18 19  1  0  0  0  0
 19 20  2  0  0  0  0
 20 21  1  0  0  0  0
 21 22  1  0  0  0  0
 22 23  1  0  0  0  0
 23 24  2  0  0  0  0
 24 25  1  0  0  0  0
 25 26  2  0  0  0  0
 26 27  1  0  0  0  0
 27 28  1  0  0  0  0
 21 29  1  0  0  0  0
  6 30  1  0  0  0  0
 30 31  2  0  0  0  0
 30 32  2  0  0  0  0
 30 33  1  0  0  0  0
 33 34  2  0  0  0  0
 34 35  1  0  0  0  0
 35 36  1  0  0  0  0
 35 37  1  0  0  0  0
 37 38  2  0  0  0  0
 29  7  1  0  0  0  0
 38 33  1  0  0  0  0
 20  9  1  0  0  0  0
 27 23  1  0  0  0  0
 17 12  1  0  0  0  0
  1 39  1  0  0  0  0
  1 40  1  0  0  0  0
  1 41  1  0  0  0  0
  5 42  1  0  0  0  0
  5 43  1  0  0  0  0
  7 44  1  0  0  0  0
  8 45  1  0  0  0  0
  8 46  1  0  0  0  0
 10 47  1  0  0  0  0
 13 48  1  0  0  0  0
 14 49  1  0  0  0  0
 15 50  1  0  0  0  0
 16 51  1  0  0  0  0
 17 52  1  0  0  0  0
 18 53  1  0  0  0  0
 19 54  1  0  0  0  0
 22 55  1  0  0  0  0
 22 56  1  0  0  0  0
 24 57  1  0  0  0  0
 26 58  1  0  0  0  0
 28 59  1  0  0  0  0
 28 60  1  0  0  0  0
 28 61  1  0  0  0  0
 29 62  1  0  0  0  0
 29 63  1  0  0  0  0
 34 64  1  0  0  0  0
 36 65  1  0  0  0  0
 36 66  1  0  0  0  0
 36 67  1  0  0  0  0
 37 68  1  0  0  0  0
M  END
>  <docking-score>
-23.65

$$$$
2IEJ_S48_2
foFlexX   03192112253D 1   1.00000     0.00000     0
FlexX 4.5.0 fol007
 68 72  0  0  0  0            999 V2000
   13.1477  136.2840  -11.7350 C   0  0  0  0  0  0  0  0  0  0  0  0
   13.6931  136.8387  -10.5444 O   0  0  0  0  0  0  0  0  0  0  0  0
   13.6938  136.1517   -9.3268 C   0  0  0  0  0  0  0  0  0  0  0  0
   12.8999  135.1915   -9.1306 O   0  0  0  0  0  0  0  0  0  0  0  0
   14.6791  136.5267   -8.2652 C   0  0  0  0  0  0  0  0  0  0  0  0
   15.0643  135.3396   -7.4702 N   0  0  0  0  0  0  0  0  0  0  0  0
   14.8113  135.4582   -6.0254 C   0  0  2  0  0  0  0  0  0  0  0  0
   16.0041  136.1603   -5.3970 C   0  0  0  0  0  0  0  0  0  0  0  0
   15.7216  136.1876   -3.9059 C   0  0  0  0  0  0  0  0  0  0  0  0
   15.9427  137.3502   -3.1766 C   0  0  0  0  0  0  0  0  0  0  0  0
   15.6358  137.3518   -1.8188 C   0  0  0  0  0  0  0  0  0  0  0  0
   15.8227  138.5726   -1.0586 C   0  0  0  0  0  0  0  0  0  0  0  0
   16.3022  139.7103   -1.6988 C   0  0  0  0  0  0  0  0  0  0  0  0
   16.4796  140.8777   -0.9640 C   0  0  0  0  0  0  0  0  0  0  0  0
   16.1813  140.9074    0.3937 C   0  0  0  0  0  0  0  0  0  0  0  0
   15.7025  139.7643    1.0259 C   0  0  0  0  0  0  0  0  0  0  0  0
   15.5217  138.5921    0.2994 C   0  0  0  0  0  0  0  0  0  0  0  0
   15.1460  136.2112   -1.1914 C   0  0  0  0  0  0  0  0  0  0  0  0
   14.9575  135.0594   -1.9493 C   0  0  0  0  0  0  0  0  0  0  0  0
   15.2414  135.0255   -3.3102 C   0  0  0  0  0  0  0  0  0  0  0  0
   15.0468  133.8793   -4.1040 N   0  0  0  0  0  0  0  0  0  0  0  0
   15.3016  132.5197   -3.5969 C   0  0  0  0  0  0  0  0  0  0  0  0
   14.0085  131.8351   -3.1819 C   0  0  0  0  0  0  0  0  0  0  0  0
   12.7581  132.3739   -3.2633 C   0  0  0  0  0  0  0  0  0  0  0  0
   11.8892  131.4337   -2.7942 N   0  0  0  0  0  0  0  0  0  0  0  0
   12.5740  130.3672   -2.4407 C   0  0  0  0  0  0  0  0  0  0  0  0
   13.8972  130.5790   -2.6744 N   0  0  0  0  0  0  0  0  0  0  0  0
   14.9974  129.6372   -2.4196 C   0  0  0  0  0  0  0  0  0  0  0  0
   14.5465  134.0638   -5.4764 C   0  0  0  0  0  0  0  0  0  0  0  0
   16.7264  134.8770   -7.7983 S   0  0  0  0  0  0  0  0  0  0  0  0
   16.8187  134.1029   -9.0839 O   0  0  0  0  0  0  0  0  0  0  0  0
   17.2699  134.0248   -6.6846 O   0  0  0  0  0  0  0  0  0  0  0  0
   17.7242  136.3094   -7.9649 C   0  0  0  0  0  0  0  0  0  0  0  0
   18.2239  137.0426   -6.9326 C   0  0  0  0  0  0  0  0  0  0  0  0
   18.9300  138.0505   -7.5094 N   0  0  0  0  0  0  0  0  0  0  0  0
   19.6604  139.1081   -6.7964 C   0  0  0  0  0  0  0  0  0  0  0  0
   18.8485  137.9135   -8.8611 C   0  0  0  0  0  0  0  0  0  0  0  0
   18.1197  136.8601   -9.1477 N   0  0  0  0  0  0  0  0  0  0  0  0
   12.1776  136.0850  -11.5960 H   0  0  0  0  0  0  0  0  0  0  0  0
   13.2498  136.9378  -12.4846 H   0  0  0  0  0  0  0  0  0  0  0  0
   13.6322  135.4390  -11.9614 H   0  0  0  0  0  0  0  0  0  0  0  0
   14.2670  137.2080   -7.6602 H   0  0  0  0  0  0  0  0  0  0  0  0
   15.4949  136.9131   -8.6956 H   0  0  0  0  0  0  0  0  0  0  0  0
   13.9959  136.0201   -5.8857 H   0  0  0  0  0  0  0  0  0  0  0  0
   16.8457  135.6536   -5.5837 H   0  0  0  0  0  0  0  0  0  0  0  0
   16.0892  137.0908   -5.7534 H   0  0  0  0  0  0  0  0  0  0  0  0
   16.3140  138.1673   -3.6176 H   0  0  0  0  0  0  0  0  0  0  0  0
   16.5166  139.6892   -2.6754 H   0  0  0  0  0  0  0  0  0  0  0  0
   16.8240  141.7011   -1.4150 H   0  0  0  0  0  0  0  0  0  0  0  0
   16.3109  141.7504    0.9157 H   0  0  0  0  0  0  0  0  0  0  0  0
   15.4883  139.7855    2.0025 H   0  0  0  0  0  0  0  0  0  0  0  0
   15.1775  137.7686    0.7504 H   0  0  0  0  0  0  0  0  0  0  0  0
   14.9334  136.2186   -0.2143 H   0  0  0  0  0  0  0  0  0  0  0  0
   14.6088  134.2348   -1.5037 H   0  0  0  0  0  0  0  0  0  0  0  0
   15.9095  132.5758   -2.8049 H   0  0  0  0  0  0  0  0  0  0  0  0
   15.7398  131.9804   -4.3160 H   0  0  0  0  0  0  0  0  0  0  0  0
   12.5234  133.2849   -3.6023 H   0  0  0  0  0  0  0  0  0  0  0  0
   12.1822  129.5300   -2.0591 H   0  0  0  0  0  0  0  0  0  0  0  0
   15.8654  130.0606   -2.6789 H   0  0  0  0  0  0  0  0  0  0  0  0
   15.0177  129.4035   -1.4475 H   0  0  0  0  0  0  0  0  0  0  0  0
   14.8572  128.8070   -2.9592 H   0  0  0  0  0  0  0  0  0  0  0  0
   13.5596  133.9024   -5.4799 H   0  0  0  0  0  0  0  0  0  0  0  0
   14.9954  133.3970   -6.0712 H   0  0  0  0  0  0  0  0  0  0  0  0
   18.0979  136.8748   -5.9549 H   0  0  0  0  0  0  0  0  0  0  0  0
   20.0936  139.7190   -7.4591 H   0  0  0  0  0  0  0  0  0  0  0  0
   19.0228  139.6296   -6.2295 H   0  0  0  0  0  0  0  0  0  0  0  0
   20.3620  138.6952   -6.2155 H   0  0  0  0  0  0  0  0  0  0  0  0
   19.2766  138.5203   -9.5308 H   0  0  0  0  0  0  0  0  0  0  0  0
  1  2  1  0  0  0  0
  2  3  1  0  0  0  0
  3  4  2  0  0  0  0
  3  5  1  0  0  0  0
  5  6  1  0  0  0  0
  6  7  1  0  0  0  0
  7  8  1  0  0  0  0
  8  9  1  0  0  0  0
  9 10  2  0  0  0  0
 10 11  1  0  0  0  0
 11 12  1  0  0  0  0
 12 13  2  0  0  0  0
 13 14  1  0  0  0  0
 14 15  2  0  0  0  0
 15 16  1  0  0  0  0
 16 17  2  0  0  0  0
 11 18  2  0  0  0  0
 18 19  1  0  0  0  0
 19 20  2  0  0  0  0
 20 21  1  0  0  0  0
 21 22  1  0  0  0  0
 22 23  1  0  0  0  0
 23 24  2  0  0  0  0
 24 25  1  0  0  0  0
 25 26  2  0  0  0  0
 26 27  1  0  0  0  0
 27 28  1  0  0  0  0
 21 29  1  0  0  0  0
  6 30  1  0  0  0  0
 30 31  2  0  0  0  0
 30 32  2  0  0  0  0
 30 33  1  0  0  0  0
 33 34  2  0  0  0  0
 34 35  1  0  0  0  0
 35 36  1  0  0  0  0
 35 37  1  0  0  0  0
 37 38  2  0  0  0  0
 29  7  1  0  0  0  0
 38 33  1  0  0  0  0
 20  9  1  0  0  0  0
 27 23  1  0  0  0  0
 17 12  1  0  0  0  0
  1 39  1  0  0  0  0
  1 40  1  0  0  0  0
  1 41  1  0  0  0  0
  5 42  1  0  0  0  0
  5 43  1  0  0  0  0
  7 44  1  0  0  0  0
  8 45  1  0  0  0  0
  8 46  1  0  0  0  0
 10 47  1  0  0  0  0
 13 48  1  0  0  0  0
 14 49  1  0  0  0  0
 15 50  1  0  0  0  0
 16 51  1  0  0  0  0
 17 52  1  0  0  0  0
 18 53  1  0  0  0  0
 19 54  1  0  0  0  0
 22 55  1  0  0  0  0
 22 56  1  0  0  0  0
 24 57  1  0  0  0  0
 26 58  1  0  0  0  0
 28 59  1  0  0  0  0
 28 60  1  0  0  0  0
 28 61  1  0  0  0  0
 29 62  1  0  0  0  0
 29 63  1  0  0  0  0
 34 64  1  0  0  0  0
 36 65  1  0  0  0  0
 36 66  1  0  0  0  0
 36 67  1  0  0  0  0
 37 68  1  0  0  0  0
M  END
>  <docking-score>
-23.52

$$$$
2IEJ_S48_3
foFlexX   03192112253D 1   1.00000     0.00000     0
FlexX 4.5.0 fol007
 68 72  0  0  0  0            999 V2000
   14.2433  139.1311  -10.0782 C   0  0  0  0  0  0  0  0  0  0  0  0
   15.3101  138.9798   -9.1498 O   0  0  0  0  0  0  0  0  0  0  0  0
   15.1991  139.3596   -7.8089 C   0  0  0  0  0  0  0  0  0  0  0  0
   14.3122  140.1791   -7.4448 O   0  0  0  0  0  0  0  0  0  0  0  0
   16.1085  138.7508   -6.7889 C   0  0  0  0  0  0  0  0  0  0  0  0
   15.9716  137.2774   -6.7831 N   0  0  0  0  0  0  0  0  0  0  0  0
   15.5856  136.6939   -5.4703 C   0  0  2  0  0  0  0  0  0  0  0  0
   16.8533  136.4940   -4.6557 C   0  0  0  0  0  0  0  0  0  0  0  0
   16.4076  135.8318   -3.3646 C   0  0  0  0  0  0  0  0  0  0  0  0
   16.9078  136.2755   -2.1459 C   0  0  0  0  0  0  0  0  0  0  0  0
   16.4478  135.6716   -0.9789 C   0  0  0  0  0  0  0  0  0  0  0  0
   16.9315  136.1563    0.2995 C   0  0  0  0  0  0  0  0  0  0  0  0
   16.1121  136.0664    1.4195 C   0  0  0  0  0  0  0  0  0  0  0  0
   16.5819  136.5335    2.6424 C   0  0  0  0  0  0  0  0  0  0  0  0
   17.8548  137.0833    2.7444 C   0  0  0  0  0  0  0  0  0  0  0  0
   18.6675  137.1695    1.6184 C   0  0  0  0  0  0  0  0  0  0  0  0
   18.2066  136.7051    0.3910 C   0  0  0  0  0  0  0  0  0  0  0  0
   15.5303  134.6274   -1.0237 C   0  0  0  0  0  0  0  0  0  0  0  0
   15.0678  134.1957   -2.2631 C   0  0  0  0  0  0  0  0  0  0  0  0
   15.4959  134.7840   -3.4482 C   0  0  0  0  0  0  0  0  0  0  0  0
   15.0342  134.3777   -4.7146 N   0  0  0  0  0  0  0  0  0  0  0  0
   14.7553  132.9694   -5.0329 C   0  0  0  0  0  0  0  0  0  0  0  0
   13.6918  132.4056   -4.1278 C   0  0  0  0  0  0  0  0  0  0  0  0
   12.6654  133.1081   -3.5679 C   0  0  0  0  0  0  0  0  0  0  0  0
   11.9376  132.2250   -2.8267 N   0  0  0  0  0  0  0  0  0  0  0  0
   12.4914  131.0355   -2.9263 C   0  0  0  0  0  0  0  0  0  0  0  0
   13.5830  131.1090   -3.7345 N   0  0  0  0  0  0  0  0  0  0  0  0
   14.4792  130.0037   -4.1053 C   0  0  0  0  0  0  0  0  0  0  0  0
   14.8038  135.4150   -5.7336 C   0  0  0  0  0  0  0  0  0  0  0  0
   17.4124  136.5106   -7.4314 S   0  0  0  0  0  0  0  0  0  0  0  0
   17.4055  136.5513   -8.9338 O   0  0  0  0  0  0  0  0  0  0  0  0
   17.4940  135.0752   -6.9902 O   0  0  0  0  0  0  0  0  0  0  0  0
   18.8426  137.3629   -6.8810 C   0  0  0  0  0  0  0  0  0  0  0  0
   18.8976  138.1876   -5.7993 C   0  0  0  0  0  0  0  0  0  0  0  0
   20.1822  138.6278   -5.7412 N   0  0  0  0  0  0  0  0  0  0  0  0
   20.7328  139.5470   -4.7351 C   0  0  0  0  0  0  0  0  0  0  0  0
   20.8743  138.0709   -6.7724 C   0  0  0  0  0  0  0  0  0  0  0  0
   20.0710  137.3016   -7.4693 N   0  0  0  0  0  0  0  0  0  0  0  0
   13.9941  140.0973  -10.1449 H   0  0  0  0  0  0  0  0  0  0  0  0
   14.5329  138.7989  -10.9758 H   0  0  0  0  0  0  0  0  0  0  0  0
   13.4529  138.6037   -9.7666 H   0  0  0  0  0  0  0  0  0  0  0  0
   15.8729  139.1064   -5.8844 H   0  0  0  0  0  0  0  0  0  0  0  0
   17.0544  138.9922   -7.0059 H   0  0  0  0  0  0  0  0  0  0  0  0
   14.9930  137.3414   -4.9912 H   0  0  0  0  0  0  0  0  0  0  0  0
   17.4948  135.9048   -5.1469 H   0  0  0  0  0  0  0  0  0  0  0  0
   17.2881  137.3740   -4.4647 H   0  0  0  0  0  0  0  0  0  0  0  0
   17.5831  137.0121   -2.1083 H   0  0  0  0  0  0  0  0  0  0  0  0
   15.1966  135.6708    1.3465 H   0  0  0  0  0  0  0  0  0  0  0  0
   16.0003  136.4735    3.4537 H   0  0  0  0  0  0  0  0  0  0  0  0
   18.1862  137.4167    3.6270 H   0  0  0  0  0  0  0  0  0  0  0  0
   19.5829  137.5653    1.6915 H   0  0  0  0  0  0  0  0  0  0  0  0
   18.7880  136.7653   -0.4204 H   0  0  0  0  0  0  0  0  0  0  0  0
   15.2091  134.1949   -0.1812 H   0  0  0  0  0  0  0  0  0  0  0  0
   14.4106  133.4430   -2.3026 H   0  0  0  0  0  0  0  0  0  0  0  0
   15.5945  132.4374   -4.9206 H   0  0  0  0  0  0  0  0  0  0  0  0
   14.4441  132.9049   -5.9811 H   0  0  0  0  0  0  0  0  0  0  0  0
   12.4817  134.0847   -3.6797 H   0  0  0  0  0  0  0  0  0  0  0  0
   12.1608  130.2055   -2.4770 H   0  0  0  0  0  0  0  0  0  0  0  0
   15.2020  130.3474   -4.7048 H   0  0  0  0  0  0  0  0  0  0  0  0
   14.8879  129.6147   -3.2796 H   0  0  0  0  0  0  0  0  0  0  0  0
   13.9572  129.2974   -4.5834 H   0  0  0  0  0  0  0  0  0  0  0  0
   13.8286  135.6355   -5.7487 H   0  0  0  0  0  0  0  0  0  0  0  0
   15.0774  135.0524   -6.6245 H   0  0  0  0  0  0  0  0  0  0  0  0
   18.1497  138.4206   -5.1778 H   0  0  0  0  0  0  0  0  0  0  0  0
   21.7024  139.7043   -4.9225 H   0  0  0  0  0  0  0  0  0  0  0  0
   20.2406  140.4166   -4.7731 H   0  0  0  0  0  0  0  0  0  0  0  0
   20.6301  139.1453   -3.8250 H   0  0  0  0  0  0  0  0  0  0  0  0
   21.8429  138.2239   -6.9683 H   0  0  0  0  0  0  0  0  0  0  0  0
  1  2  1  0  0  0  0
  2  3  1  0  0  0  0
  3  4  2  0  0  0  0
  3  5  1  0  0  0  0
  5  6  1  0  0  0  0
  6  7  1  0  0  0  0
  7  8  1  0  0  0  0
  8  9  1  0  0  0  0
  9 10  2  0  0  0  0
 10 11  1  0  0  0  0
 11 12  1  0  0  0  0
 12 13  2  0  0  0  0
 13 14  1  0  0  0  0
 14 15  2  0  0  0  0
 15 16  1  0  0  0  0
 16 17  2  0  0  0  0
 11 18  2  0  0  0  0
 18 19  1  0  0  0  0
 19 20  2  0  0  0  0
 20 21  1  0  0  0  0
 21 22  1  0  0  0  0
 22 23  1  0  0  0  0
 23 24  2  0  0  0  0
 24 25  1  0  0  0  0
 25 26  2  0  0  0  0
 26 27  1  0  0  0  0
 27 28  1  0  0  0  0
 21 29  1  0  0  0  0
  6 30  1  0  0  0  0
 30 31  2  0  0  0  0
 30 32  2  0  0  0  0
 30 33  1  0  0  0  0
 33 34  2  0  0  0  0
 34 35  1  0  0  0  0
 35 36  1  0  0  0  0
 35 37  1  0  0  0  0
 37 38  2  0  0  0  0
 29  7  1  0  0  0  0
 38 33  1  0  0  0  0
 20  9  1  0  0  0  0
 27 23  1  0  0  0  0
 17 12  1  0  0  0  0
  1 39  1  0  0  0  0
  1 40  1  0  0  0  0
  1 41  1  0  0  0  0
  5 42  1  0  0  0  0
  5 43  1  0  0  0  0
  7 44  1  0  0  0  0
  8 45  1  0  0  0  0
  8 46  1  0  0  0  0
 10 47  1  0  0  0  0
 13 48  1  0  0  0  0
 14 49  1  0  0  0  0
 15 50  1  0  0  0  0
 16 51  1  0  0  0  0
 17 52  1  0  0  0  0
 18 53  1  0  0  0  0
 19 54  1  0  0  0  0
 22 55  1  0  0  0  0
 22 56  1  0  0  0  0
 24 57  1  0  0  0  0
 26 58  1  0  0  0  0
 28 59  1  0  0  0  0
 28 60  1  0  0  0  0
 28 61  1  0  0  0  0
 29 62  1  0  0  0  0
 29 63  1  0  0  0  0
 34 64  1  0  0  0  0
 36 65  1  0  0  0  0
 36 66  1  0  0  0  0
 36 67  1  0  0  0  0
 37 68  1  0  0  0  0
M  END
>  <docking-score>
-23.08

$$$$
