1JCQ_739_1
foFlexX   03192112163D 1   1.00000     0.00000     0
FlexX 4.5.0 fol007
 74 74  0  0  0  0            999 V2000
   19.9462  132.5616   -2.3250 C   0  0  0  0  0  0  0  0  0  0  0  0
   20.4592  134.0008   -2.2338 C   0  0  0  0  0  0  0  0  0  0  0  0
   21.2363  134.4528   -3.4993 C   0  0  2  0  0  0  0  0  0  0  0  0
   22.6935  133.9479   -3.4395 C   0  0  0  0  0  0  0  0  0  0  0  0
   21.1141  135.9952   -3.7736 C   0  0  2  0  0  0  0  0  0  0  0  0
   21.7402  136.3959   -5.1311 C   0  0  0  0  0  0  0  0  0  0  0  0
   20.9599  137.3891   -5.7644 O   0  0  0  0  0  0  0  0  0  0  0  0
   19.6416  136.9309   -6.0104 C   0  0  1  0  0  0  0  0  0  0  0  0
   18.6418  137.8430   -5.2767 C   0  0  0  0  0  0  0  0  0  0  0  0
   19.1617  139.2533   -5.1506 C   0  0  0  0  0  0  0  0  0  0  0  0
   19.8415  139.8297   -6.2181 C   0  0  0  0  0  0  0  0  0  0  0  0
   20.3188  141.1302   -6.0951 C   0  0  0  0  0  0  0  0  0  0  0  0
   20.1188  141.8456   -4.9198 C   0  0  0  0  0  0  0  0  0  0  0  0
   19.4378  141.2607   -3.8568 C   0  0  0  0  0  0  0  0  0  0  0  0
   18.9568  139.9605   -3.9703 C   0  0  0  0  0  0  0  0  0  0  0  0
   19.3917  136.9715   -7.4944 C   0  0  0  0  0  0  0  0  0  0  0  0
   19.9847  137.8376   -8.1931 O   0  0  0  0  0  0  0  0  0  0  0  0
   18.5143  136.0120   -8.1124 N   0  0  0  0  0  0  0  0  0  0  0  0
   18.2382  135.9529   -9.5522 C   0  0  2  0  0  0  0  0  0  0  0  0
   17.0676  136.8852   -9.9362 C   0  0  0  0  0  0  0  0  0  0  0  0
   15.7504  136.5351   -9.2237 C   0  0  0  0  0  0  0  0  0  0  0  0
   15.5508  137.3878   -7.6618 S   0  0  0  0  0  0  0  0  0  0  0  0
   15.5657  139.1419   -7.9549 C   0  0  0  0  0  0  0  0  0  0  0  0
   14.2378  137.0118   -7.0347 O   0  0  0  0  0  0  0  0  0  0  0  0
   16.6726  137.0359   -6.7254 O   0  0  0  0  0  0  0  0  0  0  0  0
   18.0157  134.5277   -9.9871 C   0  0  0  0  0  0  0  0  0  0  0  0
   17.1686  133.7943   -9.4103 O   0  0  0  0  0  0  0  0  0  0  0  0
   18.7888  133.9982  -11.0124 O   0  5  0  0  0  0  0  0  0  0  0  0
   21.6381  136.8443   -2.6600 N   0  3  0  0  0  0  0  0  0  0  0  0
   22.1663  136.0623   -1.5238 C   0  0  0  0  0  0  0  0  0  0  0  0
   22.7121  136.9430   -0.3637 C   0  0  2  0  0  0  0  0  0  0  0  0
   22.5657  136.2794    0.9419 N   0  3  0  0  0  0  0  0  0  0  0  0
   22.0351  138.3314   -0.3573 C   0  0  0  0  0  0  0  0  0  0  0  0
   21.4181  138.8097   -1.9645 S   0  0  0  0  0  0  0  0  0  0  0  0
   20.7197  131.9389   -2.4435 H   0  0  0  0  0  0  0  0  0  0  0  0
   19.4562  132.3285   -1.4850 H   0  0  0  0  0  0  0  0  0  0  0  0
   19.3276  132.4771   -3.1062 H   0  0  0  0  0  0  0  0  0  0  0  0
   21.0685  134.0719   -1.4441 H   0  0  0  0  0  0  0  0  0  0  0  0
   19.6764  134.6100   -2.1068 H   0  0  0  0  0  0  0  0  0  0  0  0
   20.8075  133.9913   -4.2760 H   0  0  0  0  0  0  0  0  0  0  0  0
   23.1802  134.4206   -2.7049 H   0  0  0  0  0  0  0  0  0  0  0  0
   22.6982  132.9636   -3.2630 H   0  0  0  0  0  0  0  0  0  0  0  0
   23.1462  134.1322   -4.3119 H   0  0  0  0  0  0  0  0  0  0  0  0
   20.1364  136.1931   -3.8439 H   0  0  0  0  0  0  0  0  0  0  0  0
   21.7888  135.5902   -5.7214 H   0  0  0  0  0  0  0  0  0  0  0  0
   22.6619  136.7515   -4.9759 H   0  0  0  0  0  0  0  0  0  0  0  0
   19.5452  135.9922   -5.6792 H   0  0  0  0  0  0  0  0  0  0  0  0
   18.4785  137.4748   -4.3615 H   0  0  0  0  0  0  0  0  0  0  0  0
   17.7824  137.8590   -5.7878 H   0  0  0  0  0  0  0  0  0  0  0  0
   19.9854  139.3155   -7.0637 H   0  0  0  0  0  0  0  0  0  0  0  0
   20.8090  141.5536   -6.8569 H   0  0  0  0  0  0  0  0  0  0  0  0
   20.4643  142.7804   -4.8385 H   0  0  0  0  0  0  0  0  0  0  0  0
   19.2943  141.7749   -3.0112 H   0  0  0  0  0  0  0  0  0  0  0  0
   18.4668  139.5369   -3.2084 H   0  0  0  0  0  0  0  0  0  0  0  0
   18.0637  135.3423   -7.5221 H   0  0  0  0  0  0  0  0  0  0  0  0
   19.0532  136.2860  -10.0264 H   0  0  0  0  0  0  0  0  0  0  0  0
   16.9212  136.8204  -10.9233 H   0  0  0  0  0  0  0  0  0  0  0  0
   17.3179  137.8234   -9.6971 H   0  0  0  0  0  0  0  0  0  0  0  0
   15.7325  135.5499   -9.0533 H   0  0  0  0  0  0  0  0  0  0  0  0
   14.9888  136.7838   -9.8220 H   0  0  0  0  0  0  0  0  0  0  0  0
   15.4541  139.6259   -7.0870 H   0  0  0  0  0  0  0  0  0  0  0  0
   16.4361  139.4027   -8.3725 H   0  0  0  0  0  0  0  0  0  0  0  0
   14.8152  139.3835   -8.5701 H   0  0  0  0  0  0  0  0  0  0  0  0
   20.8947  137.4243   -2.3270 H   0  0  0  0  0  0  0  0  0  0  0  0
   22.3740  137.4186   -3.0186 H   0  0  0  0  0  0  0  0  0  0  0  0
   22.9094  135.4822   -1.8572 H   0  0  0  0  0  0  0  0  0  0  0  0
   21.4302  135.4879   -1.1656 H   0  0  0  0  0  0  0  0  0  0  0  0
   23.6892  137.0833   -0.5240 H   0  0  0  0  0  0  0  0  0  0  0  0
   21.7256  135.7370    0.9477 H   0  0  0  0  0  0  0  0  0  0  0  0
   23.3503  135.6803    1.1012 H   0  0  0  0  0  0  0  0  0  0  0  0
   22.5216  136.9700    1.6638 H   0  0  0  0  0  0  0  0  0  0  0  0
   22.7039  139.0114   -0.0568 H   0  0  0  0  0  0  0  0  0  0  0  0
   21.2693  138.3104    0.2854 H   0  0  0  0  0  0  0  0  0  0  0  0
   22.1758  138.8428   -2.6161 H   0  0  0  0  0  0  0  0  0  0  0  0
  1  2  1  0  0  0  0
  2  3  1  0  0  0  0
  3  4  1  0  0  0  0
  3  5  1  0  0  0  0
  5  6  1  0  0  0  0
  6  7  1  0  0  0  0
  7  8  1  0  0  0  0
  8  9  1  0  0  0  0
  9 10  1  0  0  0  0
 10 11  2  0  0  0  0
 11 12  1  0  0  0  0
 12 13  2  0  0  0  0
 13 14  1  0  0  0  0
 14 15  2  0  0  0  0
  8 16  1  0  0  0  0
 16 17  2  0  0  0  0
 16 18  1  0  0  0  0
 18 19  1  0  0  0  0
 19 20  1  0  0  0  0
 20 21  1  0  0  0  0
 21 22  1  0  0  0  0
 22 23  1  0  0  0  0
 22 24  2  0  0  0  0
 22 25  2  0  0  0  0
 19 26  1  0  0  0  0
 26 27  2  0  0  0  0
 26 28  1  0  0  0  0
  5 29  1  0  0  0  0
 29 30  1  0  0  0  0
 30 31  1  0  0  0  0
 31 32  1  0  0  0  0
 31 33  1  0  0  0  0
 33 34  1  0  0  0  0
 15 10  1  0  0  0  0
  1 35  1  0  0  0  0
  1 36  1  0  0  0  0
  1 37  1  0  0  0  0
  2 38  1  0  0  0  0
  2 39  1  0  0  0  0
  3 40  1  0  0  0  0
  4 41  1  0  0  0  0
  4 42  1  0  0  0  0
  4 43  1  0  0  0  0
  5 44  1  0  0  0  0
  6 45  1  0  0  0  0
  6 46  1  0  0  0  0
  8 47  1  0  0  0  0
  9 48  1  0  0  0  0
  9 49  1  0  0  0  0
 11 50  1  0  0  0  0
 12 51  1  0  0  0  0
 13 52  1  0  0  0  0
 14 53  1  0  0  0  0
 15 54  1  0  0  0  0
 18 55  1  0  0  0  0
 19 56  1  0  0  0  0
 20 57  1  0  0  0  0
 20 58  1  0  0  0  0
 21 59  1  0  0  0  0
 21 60  1  0  0  0  0
 23 61  1  0  0  0  0
 23 62  1  0  0  0  0
 23 63  1  0  0  0  0
 29 64  1  0  0  0  0
 29 65  1  0  0  0  0
 30 66  1  0  0  0  0
 30 67  1  0  0  0  0
 31 68  1  0  0  0  0
 32 69  1  0  0  0  0
 32 70  1  0  0  0  0
 32 71  1  0  0  0  0
 33 72  1  0  0  0  0
 33 73  1  0  0  0  0
 34 74  1  0  0  0  0
M  CHG  3  28  -1  29   1  32   1
M  END
>  <docking-score>
-28.24

$$$$
1JCQ_739_2
foFlexX   03192112163D 1   1.00000     0.00000     0
FlexX 4.5.0 fol007
 74 74  0  0  0  0            999 V2000
   20.4062  133.3379   -2.8487 C   0  0  0  0  0  0  0  0  0  0  0  0
   21.9283  133.2339   -2.9715 C   0  0  0  0  0  0  0  0  0  0  0  0
   22.5365  134.2908   -3.9321 C   0  0  2  0  0  0  0  0  0  0  0  0
   24.0318  134.5030   -3.6144 C   0  0  0  0  0  0  0  0  0  0  0  0
   21.7063  135.6241   -3.9789 C   0  0  2  0  0  0  0  0  0  0  0  0
   21.6623  136.2322   -5.4015 C   0  0  0  0  0  0  0  0  0  0  0  0
   20.7555  137.3147   -5.4514 O   0  0  0  0  0  0  0  0  0  0  0  0
   19.4511  136.8799   -5.7944 C   0  0  1  0  0  0  0  0  0  0  0  0
   18.4164  137.8167   -5.1449 C   0  0  0  0  0  0  0  0  0  0  0  0
   18.9529  139.2176   -4.9883 C   0  0  0  0  0  0  0  0  0  0  0  0
   19.7233  139.7726   -6.0044 C   0  0  0  0  0  0  0  0  0  0  0  0
   20.2153  141.0647   -5.8533 C   0  0  0  0  0  0  0  0  0  0  0  0
   19.9405  141.7928   -4.7012 C   0  0  0  0  0  0  0  0  0  0  0  0
   19.1691  141.2293   -3.6897 C   0  0  0  0  0  0  0  0  0  0  0  0
   18.6726  139.9378   -3.8315 C   0  0  0  0  0  0  0  0  0  0  0  0
   19.3158  136.9139   -7.2934 C   0  0  0  0  0  0  0  0  0  0  0  0
   19.9773  137.7630   -7.9502 O   0  0  0  0  0  0  0  0  0  0  0  0
   18.4693  135.9665   -7.9706 N   0  0  0  0  0  0  0  0  0  0  0  0
   18.3027  135.9016   -9.4269 C   0  0  2  0  0  0  0  0  0  0  0  0
   17.1834  136.8532   -9.9049 C   0  0  0  0  0  0  0  0  0  0  0  0
   15.8091  136.5340   -9.2929 C   0  0  0  0  0  0  0  0  0  0  0  0
   15.5078  137.4024   -7.7561 S   0  0  0  0  0  0  0  0  0  0  0  0
   15.5795  139.1536   -8.0582 C   0  0  0  0  0  0  0  0  0  0  0  0
   14.1437  137.0565   -7.2288 O   0  0  0  0  0  0  0  0  0  0  0  0
   16.5479  137.0363   -6.7347 O   0  0  0  0  0  0  0  0  0  0  0  0
   18.0859  134.4777   -9.8685 C   0  0  0  0  0  0  0  0  0  0  0  0
   17.1831  133.7651   -9.3536 O   0  0  0  0  0  0  0  0  0  0  0  0
   18.9243  133.9256  -10.8286 O   0  5  0  0  0  0  0  0  0  0  0  0
   22.1411  136.6355   -2.9671 N   0  3  0  0  0  0  0  0  0  0  0  0
   22.6981  136.0347   -1.7381 C   0  0  0  0  0  0  0  0  0  0  0  0
   22.4708  136.8998   -0.4656 C   0  0  2  0  0  0  0  0  0  0  0  0
   22.3602  136.0713    0.7459 N   0  3  0  0  0  0  0  0  0  0  0  0
   21.2329  137.8092   -0.6285 C   0  0  0  0  0  0  0  0  0  0  0  0
   20.8549  138.1667   -2.3379 S   0  0  0  0  0  0  0  0  0  0  0  0
   19.9894  133.2047   -3.7479 H   0  0  0  0  0  0  0  0  0  0  0  0
   20.0737  132.6351   -2.2198 H   0  0  0  0  0  0  0  0  0  0  0  0
   20.1610  134.2418   -2.4983 H   0  0  0  0  0  0  0  0  0  0  0  0
   22.1583  132.3230   -3.3141 H   0  0  0  0  0  0  0  0  0  0  0  0
   22.3299  133.3600   -2.0644 H   0  0  0  0  0  0  0  0  0  0  0  0
   22.4942  133.8975   -4.8506 H   0  0  0  0  0  0  0  0  0  0  0  0
   24.1236  134.9426   -2.7210 H   0  0  0  0  0  0  0  0  0  0  0  0
   24.4983  133.6186   -3.6002 H   0  0  0  0  0  0  0  0  0  0  0  0
   24.4423  135.0852   -4.3162 H   0  0  0  0  0  0  0  0  0  0  0  0
   20.7649  135.3791   -3.7470 H   0  0  0  0  0  0  0  0  0  0  0  0
   21.3712  135.5294   -6.0505 H   0  0  0  0  0  0  0  0  0  0  0  0
   22.5753  136.5566   -5.6487 H   0  0  0  0  0  0  0  0  0  0  0  0
   19.3112  135.9458   -5.4658 H   0  0  0  0  0  0  0  0  0  0  0  0
   18.1766  137.4587   -4.2425 H   0  0  0  0  0  0  0  0  0  0  0  0
   17.5990  137.8452   -5.7202 H   0  0  0  0  0  0  0  0  0  0  0  0
   19.9210  139.2493   -6.8332 H   0  0  0  0  0  0  0  0  0  0  0  0
   20.7705  141.4727   -6.5782 H   0  0  0  0  0  0  0  0  0  0  0  0
   20.2972  142.7215   -4.5996 H   0  0  0  0  0  0  0  0  0  0  0  0
   18.9717  141.7527   -2.8608 H   0  0  0  0  0  0  0  0  0  0  0  0
   18.1177  139.5296   -3.1066 H   0  0  0  0  0  0  0  0  0  0  0  0
   17.9620  135.3102   -7.4122 H   0  0  0  0  0  0  0  0  0  0  0  0
   19.1578  136.2154   -9.8396 H   0  0  0  0  0  0  0  0  0  0  0  0
   17.1114  136.7837  -10.8999 H   0  0  0  0  0  0  0  0  0  0  0  0
   17.4331  137.7883   -9.6533 H   0  0  0  0  0  0  0  0  0  0  0  0
   15.7588  135.5506   -9.1182 H   0  0  0  0  0  0  0  0  0  0  0  0
   15.1002  136.7926   -9.9492 H   0  0  0  0  0  0  0  0  0  0  0  0
   15.4117  139.6463   -7.2044 H   0  0  0  0  0  0  0  0  0  0  0  0
   16.4842  139.3944   -8.4098 H   0  0  0  0  0  0  0  0  0  0  0  0
   14.8830  139.4047   -8.7304 H   0  0  0  0  0  0  0  0  0  0  0  0
   21.3500  137.1934   -2.7166 H   0  0  0  0  0  0  0  0  0  0  0  0
   22.8415  137.2169   -3.3811 H   0  0  0  0  0  0  0  0  0  0  0  0
   23.6823  135.9106   -1.8647 H   0  0  0  0  0  0  0  0  0  0  0  0
   22.2653  135.1444   -1.5969 H   0  0  0  0  0  0  0  0  0  0  0  0
   23.2691  137.4920   -0.3555 H   0  0  0  0  0  0  0  0  0  0  0  0
   21.5452  135.4954    0.6827 H   0  0  0  0  0  0  0  0  0  0  0  0
   23.1716  135.4927    0.8293 H   0  0  0  0  0  0  0  0  0  0  0  0
   22.2888  136.6629    1.5490 H   0  0  0  0  0  0  0  0  0  0  0  0
   21.4052  138.6716   -0.1525 H   0  0  0  0  0  0  0  0  0  0  0  0
   20.4446  137.3525   -0.2160 H   0  0  0  0  0  0  0  0  0  0  0  0
   21.6327  138.6315   -2.7610 H   0  0  0  0  0  0  0  0  0  0  0  0
  1  2  1  0  0  0  0
  2  3  1  0  0  0  0
  3  4  1  0  0  0  0
  3  5  1  0  0  0  0
  5  6  1  0  0  0  0
  6  7  1  0  0  0  0
  7  8  1  0  0  0  0
  8  9  1  0  0  0  0
  9 10  1  0  0  0  0
 10 11  2  0  0  0  0
 11 12  1  0  0  0  0
 12 13  2  0  0  0  0
 13 14  1  0  0  0  0
 14 15  2  0  0  0  0
  8 16  1  0  0  0  0
 16 17  2  0  0  0  0
 16 18  1  0  0  0  0
 18 19  1  0  0  0  0
 19 20  1  0  0  0  0
 20 21  1  0  0  0  0
 21 22  1  0  0  0  0
 22 23  1  0  0  0  0
 22 24  2  0  0  0  0
 22 25  2  0  0  0  0
 19 26  1  0  0  0  0
 26 27  2  0  0  0  0
 26 28  1  0  0  0  0
  5 29  1  0  0  0  0
 29 30  1  0  0  0  0
 30 31  1  0  0  0  0
 31 32  1  0  0  0  0
 31 33  1  0  0  0  0
 33 34  1  0  0  0  0
 15 10  1  0  0  0  0
  1 35  1  0  0  0  0
  1 36  1  0  0  0  0
  1 37  1  0  0  0  0
  2 38  1  0  0  0  0
  2 39  1  0  0  0  0
  3 40  1  0  0  0  0
  4 41  1  0  0  0  0
  4 42  1  0  0  0  0
  4 43  1  0  0  0  0
  5 44  1  0  0  0  0
  6 45  1  0  0  0  0
  6 46  1  0  0  0  0
  8 47  1  0  0  0  0
  9 48  1  0  0  0  0
  9 49  1  0  0  0  0
 11 50  1  0  0  0  0
 12 51  1  0  0  0  0
 13 52  1  0  0  0  0
 14 53  1  0  0  0  0
 15 54  1  0  0  0  0
 18 55  1  0  0  0  0
 19 56  1  0  0  0  0
 20 57  1  0  0  0  0
 20 58  1  0  0  0  0
 21 59  1  0  0  0  0
 21 60  1  0  0  0  0
 23 61  1  0  0  0  0
 23 62  1  0  0  0  0
 23 63  1  0  0  0  0
 29 64  1  0  0  0  0
 29 65  1  0  0  0  0
 30 66  1  0  0  0  0
 30 67  1  0  0  0  0
 31 68  1  0  0  0  0
 32 69  1  0  0  0  0
 32 70  1  0  0  0  0
 32 71  1  0  0  0  0
 33 72  1  0  0  0  0
 33 73  1  0  0  0  0
 34 74  1  0  0  0  0
M  CHG  3  28  -1  29   1  32   1
M  END
>  <docking-score>
-26.19

$$$$
1JCQ_739_3
foFlexX   03192112163D 1   1.00000     0.00000     0
FlexX 4.5.0 fol007
 74 74  0  0  0  0            999 V2000
   19.9246  132.5491   -2.3142 C   0  0  0  0  0  0  0  0  0  0  0  0
   20.4298  133.9907   -2.2186 C   0  0  0  0  0  0  0  0  0  0  0  0
   21.2072  134.4497   -3.4814 C   0  0  2  0  0  0  0  0  0  0  0  0
   22.6669  133.9522   -3.4196 C   0  0  0  0  0  0  0  0  0  0  0  0
   21.0775  135.9920   -3.7524 C   0  0  2  0  0  0  0  0  0  0  0  0
   21.7044  136.3992   -5.1077 C   0  0  0  0  0  0  0  0  0  0  0  0
   20.9202  137.3897   -5.7404 O   0  0  0  0  0  0  0  0  0  0  0  0
   19.6049  136.9251   -5.9902 C   0  0  1  0  0  0  0  0  0  0  0  0
   18.5987  137.8303   -5.2566 C   0  0  0  0  0  0  0  0  0  0  0  0
   18.3121  137.3309   -3.8625 C   0  0  0  0  0  0  0  0  0  0  0  0
   18.1872  138.2441   -2.8211 C   0  0  0  0  0  0  0  0  0  0  0  0
   17.9233  137.7769   -1.5379 C   0  0  0  0  0  0  0  0  0  0  0  0
   17.7857  136.4142   -1.2990 C   0  0  0  0  0  0  0  0  0  0  0  0
   17.9126  135.5079   -2.3470 C   0  0  0  0  0  0  0  0  0  0  0  0
   18.1765  135.9654   -3.6337 C   0  0  0  0  0  0  0  0  0  0  0  0
   19.3579  136.9679   -7.4747 C   0  0  0  0  0  0  0  0  0  0  0  0
   19.9478  137.8387   -8.1701 O   0  0  0  0  0  0  0  0  0  0  0  0
   18.4868  136.0052   -8.0967 N   0  0  0  0  0  0  0  0  0  0  0  0
   18.2142  135.9480   -9.5373 C   0  0  2  0  0  0  0  0  0  0  0  0
   17.0395  136.8750   -9.9215 C   0  0  0  0  0  0  0  0  0  0  0  0
   15.7226  136.5164   -9.2127 C   0  0  0  0  0  0  0  0  0  0  0  0
   15.5152  137.3645   -7.6493 S   0  0  0  0  0  0  0  0  0  0  0  0
   15.5215  139.1193   -7.9384 C   0  0  0  0  0  0  0  0  0  0  0  0
   14.2029  136.9802   -7.0258 O   0  0  0  0  0  0  0  0  0  0  0  0
   16.6369  137.0163   -6.7113 O   0  0  0  0  0  0  0  0  0  0  0  0
   18.0000  134.5226   -9.9758 C   0  0  0  0  0  0  0  0  0  0  0  0
   17.1556  133.7835   -9.4025 O   0  0  0  0  0  0  0  0  0  0  0  0
   18.7780  133.9996  -11.0008 O   0  5  0  0  0  0  0  0  0  0  0  0
   21.5947  136.8413   -2.6357 N   0  3  0  0  0  0  0  0  0  0  0  0
   22.1245  136.0594   -1.5002 C   0  0  0  0  0  0  0  0  0  0  0  0
   22.6633  136.9403   -0.3369 C   0  0  2  0  0  0  0  0  0  0  0  0
   22.5176  136.2730    0.9668 N   0  3  0  0  0  0  0  0  0  0  0  0
   21.9790  138.3252   -0.3288 C   0  0  0  0  0  0  0  0  0  0  0  0
   21.3629  138.8039   -1.9362 S   0  0  0  0  0  0  0  0  0  0  0  0
   20.7015  131.9307   -2.4324 H   0  0  0  0  0  0  0  0  0  0  0  0
   19.4340  132.3115   -1.4758 H   0  0  0  0  0  0  0  0  0  0  0  0
   19.3081  132.4631   -3.0968 H   0  0  0  0  0  0  0  0  0  0  0  0
   21.0370  134.0631   -1.4274 H   0  0  0  0  0  0  0  0  0  0  0  0
   19.6435  134.5955   -2.0919 H   0  0  0  0  0  0  0  0  0  0  0  0
   20.7824  133.9878   -4.2600 H   0  0  0  0  0  0  0  0  0  0  0  0
   23.1495  134.4258   -2.6829 H   0  0  0  0  0  0  0  0  0  0  0  0
   22.6764  132.9676   -3.2453 H   0  0  0  0  0  0  0  0  0  0  0  0
   23.1205  134.1410   -4.2906 H   0  0  0  0  0  0  0  0  0  0  0  0
   20.0990  136.1850   -3.8243 H   0  0  0  0  0  0  0  0  0  0  0  0
   21.7585  135.5950   -5.6997 H   0  0  0  0  0  0  0  0  0  0  0  0
   22.6239  136.7592   -4.9497 H   0  0  0  0  0  0  0  0  0  0  0  0
   19.5127  135.9852   -5.6614 H   0  0  0  0  0  0  0  0  0  0  0  0
   17.7440  137.8518   -5.7753 H   0  0  0  0  0  0  0  0  0  0  0  0
   18.9766  138.7544   -5.1985 H   0  0  0  0  0  0  0  0  0  0  0  0
   18.2859  139.2243   -2.9926 H   0  0  0  0  0  0  0  0  0  0  0  0
   17.8319  138.4254   -0.7822 H   0  0  0  0  0  0  0  0  0  0  0  0
   17.5956  136.0854   -0.3739 H   0  0  0  0  0  0  0  0  0  0  0  0
   17.8141  134.5277   -2.1752 H   0  0  0  0  0  0  0  0  0  0  0  0
   18.2682  135.3170   -4.3894 H   0  0  0  0  0  0  0  0  0  0  0  0
   18.0385  135.3318   -7.5089 H   0  0  0  0  0  0  0  0  0  0  0  0
   19.0284  136.2864  -10.0090 H   0  0  0  0  0  0  0  0  0  0  0  0
   16.8955  136.8118  -10.9091 H   0  0  0  0  0  0  0  0  0  0  0  0
   17.2843  137.8140   -9.6798 H   0  0  0  0  0  0  0  0  0  0  0  0
   15.7095  135.5307   -9.0446 H   0  0  0  0  0  0  0  0  0  0  0  0
   14.9610  136.7625   -9.8121 H   0  0  0  0  0  0  0  0  0  0  0  0
   15.4056  139.6007   -7.0696 H   0  0  0  0  0  0  0  0  0  0  0  0
   16.3915  139.3856   -8.3535 H   0  0  0  0  0  0  0  0  0  0  0  0
   14.7711  139.3583   -8.5546 H   0  0  0  0  0  0  0  0  0  0  0  0
   20.8475  137.4167   -2.3030 H   0  0  0  0  0  0  0  0  0  0  0  0
   22.3283  137.4203   -2.9915 H   0  0  0  0  0  0  0  0  0  0  0  0
   22.8714  135.4840   -1.8334 H   0  0  0  0  0  0  0  0  0  0  0  0
   21.3907  135.4804   -1.1449 H   0  0  0  0  0  0  0  0  0  0  0  0
   23.6399  137.0861   -0.4949 H   0  0  0  0  0  0  0  0  0  0  0  0
   21.6803  135.7261    0.9696 H   0  0  0  0  0  0  0  0  0  0  0  0
   23.3050  135.6776    1.1264 H   0  0  0  0  0  0  0  0  0  0  0  0
   22.4683  136.9617    1.6902 H   0  0  0  0  0  0  0  0  0  0  0  0
   22.6436  139.0080   -0.0253 H   0  0  0  0  0  0  0  0  0  0  0  0
   21.2120  138.2986    0.3122 H   0  0  0  0  0  0  0  0  0  0  0  0
   22.1219  138.8425   -2.5862 H   0  0  0  0  0  0  0  0  0  0  0  0
  1  2  1  0  0  0  0
  2  3  1  0  0  0  0
  3  4  1  0  0  0  0
  3  5  1  0  0  0  0
  5  6  1  0  0  0  0
  6  7  1  0  0  0  0
  7  8  1  0  0  0  0
  8  9  1  0  0  0  0
  9 10  1  0  0  0  0
 10 11  2  0  0  0  0
 11 12  1  0  0  0  0
 12 13  2  0  0  0  0
 13 14  1  0  0  0  0
 14 15  2  0  0  0  0
  8 16  1  0  0  0  0
 16 17  2  0  0  0  0
 16 18  1  0  0  0  0
 18 19  1  0  0  0  0
 19 20  1  0  0  0  0
 20 21  1  0  0  0  0
 21 22  1  0  0  0  0
 22 23  1  0  0  0  0
 22 24  2  0  0  0  0
 22 25  2  0  0  0  0
 19 26  1  0  0  0  0
 26 27  2  0  0  0  0
 26 28  1  0  0  0  0
  5 29  1  0  0  0  0
 29 30  1  0  0  0  0
 30 31  1  0  0  0  0
 31 32  1  0  0  0  0
 31 33  1  0  0  0  0
 33 34  1  0  0  0  0
 15 10  1  0  0  0  0
  1 35  1  0  0  0  0
  1 36  1  0  0  0  0
  1 37  1  0  0  0  0
  2 38  1  0  0  0  0
  2 39  1  0  0  0  0
  3 40  1  0  0  0  0
  4 41  1  0  0  0  0
  4 42  1  0  0  0  0
  4 43  1  0  0  0  0
  5 44  1  0  0  0  0
  6 45  1  0  0  0  0
  6 46  1  0  0  0  0
  8 47  1  0  0  0  0
  9 48  1  0  0  0  0
  9 49  1  0  0  0  0
 11 50  1  0  0  0  0
 12 51  1  0  0  0  0
 13 52  1  0  0  0  0
 14 53  1  0  0  0  0
 15 54  1  0  0  0  0
 18 55  1  0  0  0  0
 19 56  1  0  0  0  0
 20 57  1  0  0  0  0
 20 58  1  0  0  0  0
 21 59  1  0  0  0  0
 21 60  1  0  0  0  0
 23 61  1  0  0  0  0
 23 62  1  0  0  0  0
 23 63  1  0  0  0  0
 29 64  1  0  0  0  0
 29 65  1  0  0  0  0
 30 66  1  0  0  0  0
 30 67  1  0  0  0  0
 31 68  1  0  0  0  0
 32 69  1  0  0  0  0
 32 70  1  0  0  0  0
 32 71  1  0  0  0  0
 33 72  1  0  0  0  0
 33 73  1  0  0  0  0
 34 74  1  0  0  0  0
M  CHG  3  28  -1  29   1  32   1
M  END
>  <docking-score>
-26.05

$$$$
1SA4_JAN_1
foFlexX   03192112163D 1   1.00000     0.00000     0
FlexX 4.5.0 fol007
 57 61  0  0  0  0            999 V2000
   17.5027  134.7790    0.6141 C   0  0  0  0  0  0  0  0  0  0  0  0
   18.0792  133.7584   -0.2737 N   0  0  0  0  0  0  0  0  0  0  0  0
   19.1608  132.9789    0.0161 C   0  0  0  0  0  0  0  0  0  0  0  0
   19.3746  132.1903   -1.0142 N   0  0  0  0  0  0  0  0  0  0  0  0
   18.4377  132.4527   -1.9734 C   0  0  0  0  0  0  0  0  0  0  0  0
   17.6170  133.4412   -1.5143 C   0  0  0  0  0  0  0  0  0  0  0  0
   16.4141  134.0606   -2.2496 C   0  0  2  0  0  0  0  0  0  0  0  0
   15.8136  135.0987   -1.3736 N   0  3  0  0  0  0  0  0  0  0  0  0
   15.3721  132.9545   -2.5386 C   0  0  0  0  0  0  0  0  0  0  0  0
   15.6501  131.6430   -2.1657 C   0  0  0  0  0  0  0  0  0  0  0  0
   14.7232  130.6368   -2.4174 C   0  0  0  0  0  0  0  0  0  0  0  0
   13.5247  130.9607   -3.0435 C   0  0  0  0  0  0  0  0  0  0  0  0
   12.3280  129.6847   -3.3731 Cl  0  0  0  0  0  0  0  0  0  0  0  0
   13.2450  132.2708   -3.4166 C   0  0  0  0  0  0  0  0  0  0  0  0
   14.1725  133.2762   -3.1643 C   0  0  0  0  0  0  0  0  0  0  0  0
   16.8411  134.7027   -3.5533 C   0  0  0  0  0  0  0  0  0  0  0  0
   15.9478  134.7620   -4.6141 C   0  0  0  0  0  0  0  0  0  0  0  0
   16.3860  135.3608   -5.7877 C   0  0  0  0  0  0  0  0  0  0  0  0
   17.6713  135.8818   -5.8978 C   0  0  0  0  0  0  0  0  0  0  0  0
   18.5376  135.8045   -4.8163 C   0  0  0  0  0  0  0  0  0  0  0  0
   18.1291  135.2108   -3.6275 C   0  0  0  0  0  0  0  0  0  0  0  0
   19.8822  136.3428   -4.9348 C   0  0  0  0  0  0  0  0  0  0  0  0
   20.8247  136.2776   -3.8330 C   0  0  0  0  0  0  0  0  0  0  0  0
   20.5113  136.8998   -2.6291 C   0  0  0  0  0  0  0  0  0  0  0  0
   21.4204  136.8325   -1.5780 C   0  0  0  0  0  0  0  0  0  0  0  0
   22.6271  136.1555   -1.7190 C   0  0  0  0  0  0  0  0  0  0  0  0
   22.9193  135.5407   -2.9321 C   0  0  0  0  0  0  0  0  0  0  0  0
   24.4589  134.6704   -3.1332 Cl  0  0  0  0  0  0  0  0  0  0  0  0
   22.0257  135.5957   -3.9967 C   0  0  0  0  0  0  0  0  0  0  0  0
   20.3174  136.9136   -6.0434 C   0  0  0  0  0  0  0  0  0  0  0  0
   19.4249  137.0072   -7.1827 C   0  0  0  0  0  0  0  0  0  0  0  0
   19.8268  137.5353   -8.2071 O   0  0  0  0  0  0  0  0  0  0  0  0
   18.1275  136.4882   -7.0753 N   0  0  0  0  0  0  0  0  0  0  0  0
   17.2634  136.6053   -8.2619 C   0  0  0  0  0  0  0  0  0  0  0  0
   16.7171  135.2054    0.1658 H   0  0  0  0  0  0  0  0  0  0  0  0
   17.2071  134.3498    1.4675 H   0  0  0  0  0  0  0  0  0  0  0  0
   18.1919  135.4758    0.8126 H   0  0  0  0  0  0  0  0  0  0  0  0
   19.6953  133.0029    0.8609 H   0  0  0  0  0  0  0  0  0  0  0  0
   18.3658  131.9977   -2.8610 H   0  0  0  0  0  0  0  0  0  0  0  0
   15.8287  135.9811   -1.8438 H   0  0  0  0  0  0  0  0  0  0  0  0
   14.8685  134.8500   -1.1617 H   0  0  0  0  0  0  0  0  0  0  0  0
   16.3392  135.1639   -0.5254 H   0  0  0  0  0  0  0  0  0  0  0  0
   16.5163  131.4238   -1.7166 H   0  0  0  0  0  0  0  0  0  0  0  0
   14.9165  129.6924   -2.1515 H   0  0  0  0  0  0  0  0  0  0  0  0
   12.3786  132.4897   -3.8655 H   0  0  0  0  0  0  0  0  0  0  0  0
   13.9787  134.2205   -3.4301 H   0  0  0  0  0  0  0  0  0  0  0  0
   15.0237  134.3878   -4.5360 H   0  0  0  0  0  0  0  0  0  0  0  0
   15.7652  135.4187   -6.5695 H   0  0  0  0  0  0  0  0  0  0  0  0
   18.7489  135.1517   -2.8450 H   0  0  0  0  0  0  0  0  0  0  0  0
   19.6455  137.3882   -2.5207 H   0  0  0  0  0  0  0  0  0  0  0  0
   21.2030  137.2770   -0.7090 H   0  0  0  0  0  0  0  0  0  0  0  0
   23.2756  136.1114   -0.9590 H   0  0  0  0  0  0  0  0  0  0  0  0
   22.2434  135.1519   -4.8660 H   0  0  0  0  0  0  0  0  0  0  0  0
   21.2481  137.2756   -6.0965 H   0  0  0  0  0  0  0  0  0  0  0  0
   16.3708  136.1995   -8.0656 H   0  0  0  0  0  0  0  0  0  0  0  0
   17.1466  137.5707   -8.4953 H   0  0  0  0  0  0  0  0  0  0  0  0
   17.6859  136.1253   -9.0307 H   0  0  0  0  0  0  0  0  0  0  0  0
  1  2  1  0  0  0  0
  2  3  1  0  0  0  0
  3  4  2  0  0  0  0
  4  5  1  0  0  0  0
  5  6  2  0  0  0  0
  6  7  1  0  0  0  0
  7  8  1  0  0  0  0
  7  9  1  0  0  0  0
  9 10  2  0  0  0  0
 10 11  1  0  0  0  0
 11 12  2  0  0  0  0
 12 13  1  0  0  0  0
 12 14  1  0  0  0  0
 14 15  2  0  0  0  0
  7 16  1  0  0  0  0
 16 17  2  0  0  0  0
 17 18  1  0  0  0  0
 18 19  2  0  0  0  0
 19 20  1  0  0  0  0
 20 21  2  0  0  0  0
 20 22  1  0  0  0  0
 22 23  1  0  0  0  0
 23 24  2  0  0  0  0
 24 25  1  0  0  0  0
 25 26  2  0  0  0  0
 26 27  1  0  0  0  0
 27 28  1  0  0  0  0
 27 29  2  0  0  0  0
 22 30  2  0  0  0  0
 30 31  1  0  0  0  0
 31 32  2  0  0  0  0
 31 33  1  0  0  0  0
 33 34  1  0  0  0  0
  6  2  1  0  0  0  0
 15  9  1  0  0  0  0
 21 16  1  0  0  0  0
 29 23  1  0  0  0  0
 33 19  1  0  0  0  0
  1 35  1  0  0  0  0
  1 36  1  0  0  0  0
  1 37  1  0  0  0  0
  3 38  1  0  0  0  0
  5 39  1  0  0  0  0
  8 40  1  0  0  0  0
  8 41  1  0  0  0  0
  8 42  1  0  0  0  0
 10 43  1  0  0  0  0
 11 44  1  0  0  0  0
 14 45  1  0  0  0  0
 15 46  1  0  0  0  0
 17 47  1  0  0  0  0
 18 48  1  0  0  0  0
 21 49  1  0  0  0  0
 24 50  1  0  0  0  0
 25 51  1  0  0  0  0
 26 52  1  0  0  0  0
 29 53  1  0  0  0  0
 30 54  1  0  0  0  0
 34 55  1  0  0  0  0
 34 56  1  0  0  0  0
 34 57  1  0  0  0  0
M  CHG  1   8   1
M  END
>  <docking-score>
-23.02

$$$$
1SA4_JAN_2
foFlexX   03192112163D 1   1.00000     0.00000     0
FlexX 4.5.0 fol007
 57 61  0  0  0  0            999 V2000
   17.7352  134.7019    0.6447 C   0  0  0  0  0  0  0  0  0  0  0  0
   18.2782  133.6899   -0.2734 N   0  0  0  0  0  0  0  0  0  0  0  0
   19.3582  132.8945   -0.0232 C   0  0  0  0  0  0  0  0  0  0  0  0
   19.5377  132.1205   -1.0709 N   0  0  0  0  0  0  0  0  0  0  0  0
   18.5801  132.4081   -2.0020 C   0  0  0  0  0  0  0  0  0  0  0  0
   17.7818  133.3975   -1.5068 C   0  0  0  0  0  0  0  0  0  0  0  0
   16.5677  134.0412   -2.2018 C   0  0  2  0  0  0  0  0  0  0  0  0
   16.0005  135.0712   -1.2946 N   0  3  0  0  0  0  0  0  0  0  0  0
   15.5069  132.9508   -2.4820 C   0  0  0  0  0  0  0  0  0  0  0  0
   15.7799  131.6307   -2.1370 C   0  0  0  0  0  0  0  0  0  0  0  0
   14.8362  130.6384   -2.3814 C   0  0  0  0  0  0  0  0  0  0  0  0
   13.6260  130.9849   -2.9719 C   0  0  0  0  0  0  0  0  0  0  0  0
   12.4077  129.7269   -3.2915 Cl  0  0  0  0  0  0  0  0  0  0  0  0
   13.3513  132.3036   -3.3171 C   0  0  0  0  0  0  0  0  0  0  0  0
   14.2956  133.2951   -3.0722 C   0  0  0  0  0  0  0  0  0  0  0  0
   16.9690  134.6997   -3.5055 C   0  0  0  0  0  0  0  0  0  0  0  0
   16.0502  134.7855   -4.5424 C   0  0  0  0  0  0  0  0  0  0  0  0
   16.4654  135.3986   -5.7170 C   0  0  0  0  0  0  0  0  0  0  0  0
   17.7532  135.9078   -5.8511 C   0  0  0  0  0  0  0  0  0  0  0  0
   18.6453  135.8041   -4.7930 C   0  0  0  0  0  0  0  0  0  0  0  0
   18.2602  135.1956   -3.6039 C   0  0  0  0  0  0  0  0  0  0  0  0
   19.9923  136.3302   -4.9367 C   0  0  0  0  0  0  0  0  0  0  0  0
   20.9612  136.2374   -3.8600 C   0  0  0  0  0  0  0  0  0  0  0  0
   22.1488  135.5441   -4.0685 C   0  0  0  0  0  0  0  0  0  0  0  0
   23.0721  135.4599   -3.0311 C   0  0  0  0  0  0  0  0  0  0  0  0
   22.8205  136.0566   -1.8002 C   0  0  0  0  0  0  0  0  0  0  0  0
   21.6260  136.7448   -1.6144 C   0  0  0  0  0  0  0  0  0  0  0  0
   21.2845  137.5144   -0.0462 Cl  0  0  0  0  0  0  0  0  0  0  0  0
   20.6882  136.8413   -2.6373 C   0  0  0  0  0  0  0  0  0  0  0  0
   20.4059  136.9142   -6.0467 C   0  0  0  0  0  0  0  0  0  0  0  0
   19.4863  137.0354   -7.1616 C   0  0  0  0  0  0  0  0  0  0  0  0
   19.8682  137.5758   -8.1872 O   0  0  0  0  0  0  0  0  0  0  0  0
   18.1865  136.5284   -7.0299 N   0  0  0  0  0  0  0  0  0  0  0  0
   17.2943  136.6736   -8.1924 C   0  0  0  0  0  0  0  0  0  0  0  0
   16.9432  135.1437    0.2231 H   0  0  0  0  0  0  0  0  0  0  0  0
   17.4563  134.2621    1.4984 H   0  0  0  0  0  0  0  0  0  0  0  0
   18.4366  135.3882    0.8369 H   0  0  0  0  0  0  0  0  0  0  0  0
   19.9138  132.8993    0.8082 H   0  0  0  0  0  0  0  0  0  0  0  0
   18.4811  131.9682   -2.8946 H   0  0  0  0  0  0  0  0  0  0  0  0
   16.0135  135.9609   -1.7510 H   0  0  0  0  0  0  0  0  0  0  0  0
   15.0583  134.8290   -1.0630 H   0  0  0  0  0  0  0  0  0  0  0  0
   16.5479  135.1173   -0.4590 H   0  0  0  0  0  0  0  0  0  0  0  0
   16.6546  131.3953   -1.7134 H   0  0  0  0  0  0  0  0  0  0  0  0
   15.0258  129.6878   -2.1354 H   0  0  0  0  0  0  0  0  0  0  0  0
   12.4764  132.5388   -3.7406 H   0  0  0  0  0  0  0  0  0  0  0  0
   14.1056  134.2456   -3.3180 H   0  0  0  0  0  0  0  0  0  0  0  0
   15.1244  134.4197   -4.4471 H   0  0  0  0  0  0  0  0  0  0  0  0
   15.8260  135.4756   -6.4820 H   0  0  0  0  0  0  0  0  0  0  0  0
   18.8987  135.1174   -2.8383 H   0  0  0  0  0  0  0  0  0  0  0  0
   22.3363  135.1127   -4.9509 H   0  0  0  0  0  0  0  0  0  0  0  0
   23.9285  134.9634   -3.1725 H   0  0  0  0  0  0  0  0  0  0  0  0
   23.4889  135.9917   -1.0592 H   0  0  0  0  0  0  0  0  0  0  0  0
   19.8313  137.3370   -2.4957 H   0  0  0  0  0  0  0  0  0  0  0  0
   21.3388  137.2673   -6.1174 H   0  0  0  0  0  0  0  0  0  0  0  0
   16.4025  136.2740   -7.9802 H   0  0  0  0  0  0  0  0  0  0  0  0
   17.1822  137.6438   -8.4074 H   0  0  0  0  0  0  0  0  0  0  0  0
   17.6923  136.2017   -8.9791 H   0  0  0  0  0  0  0  0  0  0  0  0
  1  2  1  0  0  0  0
  2  3  1  0  0  0  0
  3  4  2  0  0  0  0
  4  5  1  0  0  0  0
  5  6  2  0  0  0  0
  6  7  1  0  0  0  0
  7  8  1  0  0  0  0
  7  9  1  0  0  0  0
  9 10  2  0  0  0  0
 10 11  1  0  0  0  0
 11 12  2  0  0  0  0
 12 13  1  0  0  0  0
 12 14  1  0  0  0  0
 14 15  2  0  0  0  0
  7 16  1  0  0  0  0
 16 17  2  0  0  0  0
 17 18  1  0  0  0  0
 18 19  2  0  0  0  0
 19 20  1  0  0  0  0
 20 21  2  0  0  0  0
 20 22  1  0  0  0  0
 22 23  1  0  0  0  0
 23 24  2  0  0  0  0
 24 25  1  0  0  0  0
 25 26  2  0  0  0  0
 26 27  1  0  0  0  0
 27 28  1  0  0  0  0
 27 29  2  0  0  0  0
 22 30  2  0  0  0  0
 30 31  1  0  0  0  0
 31 32  2  0  0  0  0
 31 33  1  0  0  0  0
 33 34  1  0  0  0  0
  6  2  1  0  0  0  0
 15  9  1  0  0  0  0
 21 16  1  0  0  0  0
 29 23  1  0  0  0  0
 33 19  1  0  0  0  0
  1 35  1  0  0  0  0
  1 36  1  0  0  0  0
  1 37  1  0  0  0  0
  3 38  1  0  0  0  0
  5 39  1  0  0  0  0
  8 40  1  0  0  0  0
  8 41  1  0  0  0  0
  8 42  1  0  0  0  0
 10 43  1  0  0  0  0
 11 44  1  0  0  0  0
 14 45  1  0  0  0  0
 15 46  1  0  0  0  0
 17 47  1  0  0  0  0
 18 48  1  0  0  0  0
 21 49  1  0  0  0  0
 24 50  1  0  0  0  0
 25 51  1  0  0  0  0
 26 52  1  0  0  0  0
 29 53  1  0  0  0  0
 30 54  1  0  0  0  0
 34 55  1  0  0  0  0
 34 56  1  0  0  0  0
 34 57  1  0  0  0  0
M  CHG  1   8   1
M  END
>  <docking-score>
-22.87

$$$$
1SA4_JAN_3
foFlexX   03192112163D 1   1.00000     0.00000     0
FlexX 4.5.0 fol007
 57 61  0  0  0  0            999 V2000
   13.9335  134.7869   -3.3657 C   0  0  0  0  0  0  0  0  0  0  0  0
   14.2093  133.3696   -3.0877 N   0  0  0  0  0  0  0  0  0  0  0  0
   13.2878  132.3640   -3.1209 C   0  0  0  0  0  0  0  0  0  0  0  0
   13.9062  131.2431   -2.8208 N   0  0  0  0  0  0  0  0  0  0  0  0
   15.2257  131.5138   -2.5923 C   0  0  0  0  0  0  0  0  0  0  0  0
   15.4251  132.8533   -2.7582 C   0  0  0  0  0  0  0  0  0  0  0  0
   16.7545  133.6160   -2.6087 C   0  0  2  0  0  0  0  0  0  0  0  0
   17.8147  132.6421   -2.2439 N   0  3  0  0  0  0  0  0  0  0  0  0
   16.6091  134.6735   -1.4890 C   0  0  0  0  0  0  0  0  0  0  0  0
   16.2072  135.9641   -1.8195 C   0  0  0  0  0  0  0  0  0  0  0  0
   16.0707  136.9264   -0.8244 C   0  0  0  0  0  0  0  0  0  0  0  0
   16.3412  136.5801    0.4948 C   0  0  0  0  0  0  0  0  0  0  0  0
   16.1715  137.8001    1.7801 Cl  0  0  0  0  0  0  0  0  0  0  0  0
   16.7427  135.2909    0.8270 C   0  0  0  0  0  0  0  0  0  0  0  0
   16.8787  134.3293   -0.1689 C   0  0  0  0  0  0  0  0  0  0  0  0
   17.1400  134.3028   -3.9025 C   0  0  0  0  0  0  0  0  0  0  0  0
   16.3102  134.1956   -5.0101 C   0  0  0  0  0  0  0  0  0  0  0  0
   16.7067  134.8434   -6.1724 C   0  0  0  0  0  0  0  0  0  0  0  0
   17.8904  135.5725   -6.2265 C   0  0  0  0  0  0  0  0  0  0  0  0
   18.6954  135.6577   -5.0991 C   0  0  0  0  0  0  0  0  0  0  0  0
   18.3264  135.0202   -3.9202 C   0  0  0  0  0  0  0  0  0  0  0  0
   19.9350  136.4138   -5.1588 C   0  0  0  0  0  0  0  0  0  0  0  0
   20.8118  136.5240   -4.0074 C   0  0  0  0  0  0  0  0  0  0  0  0
   20.6354  137.5748   -3.1134 C   0  0  0  0  0  0  0  0  0  0  0  0
   21.4803  137.6731   -2.0124 C   0  0  0  0  0  0  0  0  0  0  0  0
   22.4892  136.7396   -1.8001 C   0  0  0  0  0  0  0  0  0  0  0  0
   22.6470  135.6970   -2.7073 C   0  0  0  0  0  0  0  0  0  0  0  0
   23.9329  134.4926   -2.4542 Cl  0  0  0  0  0  0  0  0  0  0  0  0
   21.8144  135.5794   -3.8154 C   0  0  0  0  0  0  0  0  0  0  0  0
   20.3296  137.0344   -6.2558 C   0  0  0  0  0  0  0  0  0  0  0  0
   19.4993  136.9600   -7.4425 C   0  0  0  0  0  0  0  0  0  0  0  0
   19.8635  137.5341   -8.4562 O   0  0  0  0  0  0  0  0  0  0  0  0
   18.3036  136.2308   -7.3919 N   0  0  0  0  0  0  0  0  0  0  0  0
   17.4999  136.1838   -8.6249 C   0  0  0  0  0  0  0  0  0  0  0  0
   14.7780  135.3148   -3.2753 H   0  0  0  0  0  0  0  0  0  0  0  0
   13.5793  134.8813   -4.2961 H   0  0  0  0  0  0  0  0  0  0  0  0
   13.2556  135.1284   -2.7147 H   0  0  0  0  0  0  0  0  0  0  0  0
   12.3159  132.4620   -3.3350 H   0  0  0  0  0  0  0  0  0  0  0  0
   15.9262  130.8442   -2.3455 H   0  0  0  0  0  0  0  0  0  0  0  0
   18.5381  132.6628   -2.9341 H   0  0  0  0  0  0  0  0  0  0  0  0
   18.1975  132.8844   -1.3524 H   0  0  0  0  0  0  0  0  0  0  0  0
   17.4224  131.7233   -2.1997 H   0  0  0  0  0  0  0  0  0  0  0  0
   16.0164  136.1998   -2.7724 H   0  0  0  0  0  0  0  0  0  0  0  0
   15.7817  137.8556   -1.0549 H   0  0  0  0  0  0  0  0  0  0  0  0
   16.9332  135.0554    1.7800 H   0  0  0  0  0  0  0  0  0  0  0  0
   17.1675  133.4002    0.0621 H   0  0  0  0  0  0  0  0  0  0  0  0
   15.4592  133.6718   -4.9724 H   0  0  0  0  0  0  0  0  0  0  0  0
   16.1298  134.7848   -6.9871 H   0  0  0  0  0  0  0  0  0  0  0  0
   18.9025  135.0775   -3.1049 H   0  0  0  0  0  0  0  0  0  0  0  0
   19.9121  138.2496   -3.2598 H   0  0  0  0  0  0  0  0  0  0  0  0
   21.3605  138.4255   -1.3647 H   0  0  0  0  0  0  0  0  0  0  0  0
   23.0926  136.8168   -1.0064 H   0  0  0  0  0  0  0  0  0  0  0  0
   21.9347  134.8276   -4.4637 H   0  0  0  0  0  0  0  0  0  0  0  0
   21.1878  137.5477   -6.2679 H   0  0  0  0  0  0  0  0  0  0  0  0
   16.6785  135.6358   -8.4668 H   0  0  0  0  0  0  0  0  0  0  0  0
   17.2359  137.1122   -8.8864 H   0  0  0  0  0  0  0  0  0  0  0  0
   18.0394  135.7714   -9.3590 H   0  0  0  0  0  0  0  0  0  0  0  0
  1  2  1  0  0  0  0
  2  3  1  0  0  0  0
  3  4  2  0  0  0  0
  4  5  1  0  0  0  0
  5  6  2  0  0  0  0
  6  7  1  0  0  0  0
  7  8  1  0  0  0  0
  7  9  1  0  0  0  0
  9 10  2  0  0  0  0
 10 11  1  0  0  0  0
 11 12  2  0  0  0  0
 12 13  1  0  0  0  0
 12 14  1  0  0  0  0
 14 15  2  0  0  0  0
  7 16  1  0  0  0  0
 16 17  2  0  0  0  0
 17 18  1  0  0  0  0
 18 19  2  0  0  0  0
 19 20  1  0  0  0  0
 20 21  2  0  0  0  0
 20 22  1  0  0  0  0
 22 23  1  0  0  0  0
 23 24  2  0  0  0  0
 24 25  1  0  0  0  0
 25 26  2  0  0  0  0
 26 27  1  0  0  0  0
 27 28  1  0  0  0  0
 27 29  2  0  0  0  0
 22 30  2  0  0  0  0
 30 31  1  0  0  0  0
 31 32  2  0  0  0  0
 31 33  1  0  0  0  0
 33 34  1  0  0  0  0
  6  2  1  0  0  0  0
 15  9  1  0  0  0  0
 21 16  1  0  0  0  0
 29 23  1  0  0  0  0
 33 19  1  0  0  0  0
  1 35  1  0  0  0  0
  1 36  1  0  0  0  0
  1 37  1  0  0  0  0
  3 38  1  0  0  0  0
  5 39  1  0  0  0  0
  8 40  1  0  0  0  0
  8 41  1  0  0  0  0
  8 42  1  0  0  0  0
 10 43  1  0  0  0  0
 11 44  1  0  0  0  0
 14 45  1  0  0  0  0
 15 46  1  0  0  0  0
 17 47  1  0  0  0  0
 18 48  1  0  0  0  0
 21 49  1  0  0  0  0
 24 50  1  0  0  0  0
 25 51  1  0  0  0  0
 26 52  1  0  0  0  0
 29 53  1  0  0  0  0
 30 54  1  0  0  0  0
 34 55  1  0  0  0  0
 34 56  1  0  0  0  0
 34 57  1  0  0  0  0
M  CHG  1   8   1
M  END
>  <docking-score>
-21.63

$$$$
1MZC_BNE_1
foFlexX   03192112163D 1   1.00000     0.00000     0
FlexX 4.5.0 fol007
 69 72  0  0  0  0            999 V2000
   14.4765  137.1207   -3.4499 C   0  0  0  0  0  0  0  0  0  0  0  0
   15.5640  137.0896   -4.5369 C   0  0  0  0  0  0  0  0  0  0  0  0
   15.6996  135.8305   -5.3794 C   0  0  2  0  0  0  0  0  0  0  0  0
   15.2661  134.6537   -4.5216 C   0  0  0  0  0  0  0  0  0  0  0  0
   13.9249  134.2880   -4.4704 C   0  0  0  0  0  0  0  0  0  0  0  0
   13.5508  133.2073   -3.6781 C   0  0  0  0  0  0  0  0  0  0  0  0
   14.4942  132.4962   -2.9441 C   0  0  0  0  0  0  0  0  0  0  0  0
   15.8300  132.8790   -3.0095 C   0  0  0  0  0  0  0  0  0  0  0  0
   16.7884  132.1671   -2.2716 O   0  0  0  0  0  0  0  0  0  0  0  0
   18.1095  132.4441   -2.2552 C   0  0  0  0  0  0  0  0  0  0  0  0
   18.7084  132.7687   -1.0425 C   0  0  0  0  0  0  0  0  0  0  0  0
   20.0692  133.0556   -1.0180 C   0  0  0  0  0  0  0  0  0  0  0  0
   20.7343  133.4119    0.3019 C   0  0  2  0  0  0  0  0  0  0  0  0
   21.3405  134.8352    0.2965 C   0  0  0  0  0  0  0  0  0  0  0  0
   21.8162  132.4330    0.5398 N   0  3  0  0  0  0  0  0  0  0  0  0
   19.6803  133.3777    1.4206 C   0  0  0  0  0  0  0  0  0  0  0  0
   19.7167  132.5818    2.5277 C   0  0  0  0  0  0  0  0  0  0  0  0
   18.6007  132.8654    3.2577 N   0  0  0  0  0  0  0  0  0  0  0  0
   17.9105  133.7921    2.6280 C   0  0  0  0  0  0  0  0  0  0  0  0
   18.5566  134.1399    1.4827 N   0  0  0  0  0  0  0  0  0  0  0  0
   18.1214  135.1397    0.4960 C   0  0  0  0  0  0  0  0  0  0  0  0
   20.8297  133.0217   -2.1824 C   0  0  0  0  0  0  0  0  0  0  0  0
   20.2201  132.6957   -3.3894 C   0  0  0  0  0  0  0  0  0  0  0  0
   18.8598  132.4067   -3.4258 C   0  0  0  0  0  0  0  0  0  0  0  0
   18.2276  132.0687   -4.6772 C   0  0  0  0  0  0  0  0  0  0  0  0
   17.7201  131.7991   -5.6814 N   0  0  0  0  0  0  0  0  0  0  0  0
   16.2260  133.9562   -3.7953 C   0  0  0  0  0  0  0  0  0  0  0  0
   17.1582  135.5729   -5.7369 C   0  0  0  0  0  0  0  0  0  0  0  0
   17.6617  136.3445   -6.9525 C   0  0  0  0  0  0  0  0  0  0  0  0
   17.4293  135.5585   -8.2327 C   0  0  0  0  0  0  0  0  0  0  0  0
   16.2668  134.6096   -7.9886 C   0  0  0  0  0  0  0  0  0  0  0  0
   15.0074  135.3503   -7.8161 N   0  0  0  0  0  0  0  0  0  0  0  0
   14.0691  135.4702   -8.9435 C   0  0  0  0  0  0  0  0  0  0  0  0
   14.7418  135.9255   -6.5625 C   0  0  0  0  0  0  0  0  0  0  0  0
   13.6955  136.5327   -6.4220 O   0  0  0  0  0  0  0  0  0  0  0  0
   14.6416  136.3859   -2.7920 H   0  0  0  0  0  0  0  0  0  0  0  0
   14.5017  138.0022   -2.9782 H   0  0  0  0  0  0  0  0  0  0  0  0
   13.5790  136.9944   -3.8725 H   0  0  0  0  0  0  0  0  0  0  0  0
   16.4422  137.2388   -4.0826 H   0  0  0  0  0  0  0  0  0  0  0  0
   15.3796  137.8473   -5.1630 H   0  0  0  0  0  0  0  0  0  0  0  0
   13.2403  134.7941   -4.9949 H   0  0  0  0  0  0  0  0  0  0  0  0
   12.5888  132.9377   -3.6358 H   0  0  0  0  0  0  0  0  0  0  0  0
   14.2162  131.7207   -2.3772 H   0  0  0  0  0  0  0  0  0  0  0  0
   18.1688  132.7954   -0.2010 H   0  0  0  0  0  0  0  0  0  0  0  0
   22.0245  134.9034   -0.4298 H   0  0  0  0  0  0  0  0  0  0  0  0
   20.6160  135.5055    0.1362 H   0  0  0  0  0  0  0  0  0  0  0  0
   21.7730  135.0166    1.1797 H   0  0  0  0  0  0  0  0  0  0  0  0
   21.8478  131.7806   -0.2174 H   0  0  0  0  0  0  0  0  0  0  0  0
   22.6914  132.9125    0.6035 H   0  0  0  0  0  0  0  0  0  0  0  0
   21.6411  131.9438    1.3942 H   0  0  0  0  0  0  0  0  0  0  0  0
   20.4267  131.9169    2.7598 H   0  0  0  0  0  0  0  0  0  0  0  0
   17.0446  134.1806    2.9429 H   0  0  0  0  0  0  0  0  0  0  0  0
   18.7861  135.1832   -0.2499 H   0  0  0  0  0  0  0  0  0  0  0  0
   17.2272  134.8806    0.1310 H   0  0  0  0  0  0  0  0  0  0  0  0
   18.0551  136.0353    0.9360 H   0  0  0  0  0  0  0  0  0  0  0  0
   21.8073  133.2300   -2.1519 H   0  0  0  0  0  0  0  0  0  0  0  0
   20.7596  132.6691   -4.2309 H   0  0  0  0  0  0  0  0  0  0  0  0
   17.1881  134.2257   -3.8376 H   0  0  0  0  0  0  0  0  0  0  0  0
   17.2660  134.5960   -5.9214 H   0  0  0  0  0  0  0  0  0  0  0  0
   17.7214  135.8278   -4.9509 H   0  0  0  0  0  0  0  0  0  0  0  0
   18.6412  136.5164   -6.8478 H   0  0  0  0  0  0  0  0  0  0  0  0
   17.1747  137.2159   -7.0111 H   0  0  0  0  0  0  0  0  0  0  0  0
   17.2070  136.1840   -8.9807 H   0  0  0  0  0  0  0  0  0  0  0  0
   18.2505  135.0379   -8.4664 H   0  0  0  0  0  0  0  0  0  0  0  0
   16.1787  133.9928   -8.7708 H   0  0  0  0  0  0  0  0  0  0  0  0
   16.4481  134.0763   -7.1623 H   0  0  0  0  0  0  0  0  0  0  0  0
   14.2861  136.2909   -9.4720 H   0  0  0  0  0  0  0  0  0  0  0  0
   14.1489  134.6647   -9.5308 H   0  0  0  0  0  0  0  0  0  0  0  0
   13.1345  135.5364   -8.5938 H   0  0  0  0  0  0  0  0  0  0  0  0
  1  2  1  0  0  0  0
  2  3  1  0  0  0  0
  3  4  1  0  0  0  0
  4  5  2  0  0  0  0
  5  6  1  0  0  0  0
  6  7  2  0  0  0  0
  7  8  1  0  0  0  0
  8  9  1  0  0  0  0
  9 10  1  0  0  0  0
 10 11  2  0  0  0  0
 11 12  1  0  0  0  0
 12 13  1  0  0  0  0
 13 14  1  0  0  0  0
 13 15  1  0  0  0  0
 13 16  1  0  0  0  0
 16 17  2  0  0  0  0
 17 18  1  0  0  0  0
 18 19  2  0  0  0  0
 19 20  1  0  0  0  0
 20 21  1  0  0  0  0
 12 22  2  0  0  0  0
 22 23  1  0  0  0  0
 23 24  2  0  0  0  0
 24 25  1  0  0  0  0
 25 26  3  0  0  0  0
  8 27  2  0  0  0  0
  3 28  1  0  0  0  0
 28 29  1  0  0  0  0
 29 30  1  0  0  0  0
 30 31  1  0  0  0  0
 31 32  1  0  0  0  0
 32 33  1  0  0  0  0
 32 34  1  0  0  0  0
 34 35  2  0  0  0  0
 34  3  1  0  0  0  0
 27  4  1  0  0  0  0
 24 10  1  0  0  0  0
 20 16  1  0  0  0  0
  1 36  1  0  0  0  0
  1 37  1  0  0  0  0
  1 38  1  0  0  0  0
  2 39  1  0  0  0  0
  2 40  1  0  0  0  0
  5 41  1  0  0  0  0
  6 42  1  0  0  0  0
  7 43  1  0  0  0  0
 11 44  1  0  0  0  0
 14 45  1  0  0  0  0
 14 46  1  0  0  0  0
 14 47  1  0  0  0  0
 15 48  1  0  0  0  0
 15 49  1  0  0  0  0
 15 50  1  0  0  0  0
 17 51  1  0  0  0  0
 19 52  1  0  0  0  0
 21 53  1  0  0  0  0
 21 54  1  0  0  0  0
 21 55  1  0  0  0  0
 22 56  1  0  0  0  0
 23 57  1  0  0  0  0
 27 58  1  0  0  0  0
 28 59  1  0  0  0  0
 28 60  1  0  0  0  0
 29 61  1  0  0  0  0
 29 62  1  0  0  0  0
 30 63  1  0  0  0  0
 30 64  1  0  0  0  0
 31 65  1  0  0  0  0
 31 66  1  0  0  0  0
 33 67  1  0  0  0  0
 33 68  1  0  0  0  0
 33 69  1  0  0  0  0
M  CHG  1  15   1
M  END
>  <docking-score>
-29.69

$$$$
1MZC_BNE_2
foFlexX   03192112163D 1   1.00000     0.00000     0
FlexX 4.5.0 fol007
 69 72  0  0  0  0            999 V2000
   13.2276  136.3840   -5.0278 C   0  0  0  0  0  0  0  0  0  0  0  0
   14.2716  135.8345   -6.0144 C   0  0  0  0  0  0  0  0  0  0  0  0
   15.5764  135.2904   -5.4491 C   0  0  2  0  0  0  0  0  0  0  0  0
   15.1930  134.1464   -4.5255 C   0  0  0  0  0  0  0  0  0  0  0  0
   13.8654  133.7409   -4.4358 C   0  0  0  0  0  0  0  0  0  0  0  0
   13.5373  132.6915   -3.5835 C   0  0  0  0  0  0  0  0  0  0  0  0
   14.5131  132.0502   -2.8277 C   0  0  0  0  0  0  0  0  0  0  0  0
   15.8346  132.4718   -2.9324 C   0  0  0  0  0  0  0  0  0  0  0  0
   16.8253  131.8305   -2.1729 O   0  0  0  0  0  0  0  0  0  0  0  0
   18.1367  132.1503   -2.1902 C   0  0  0  0  0  0  0  0  0  0  0  0
   18.7404  132.5567   -1.0047 C   0  0  0  0  0  0  0  0  0  0  0  0
   20.0912  132.8881   -1.0151 C   0  0  0  0  0  0  0  0  0  0  0  0
   20.7613  133.3338    0.2748 C   0  0  2  0  0  0  0  0  0  0  0  0
   21.3203  134.7735    0.1872 C   0  0  0  0  0  0  0  0  0  0  0  0
   21.8778  132.4039    0.5469 N   0  3  0  0  0  0  0  0  0  0  0  0
   19.7236  133.3238    1.4091 C   0  0  0  0  0  0  0  0  0  0  0  0
   19.8006  132.5882    2.5551 C   0  0  0  0  0  0  0  0  0  0  0  0
   18.6854  132.8734    3.2858 N   0  0  0  0  0  0  0  0  0  0  0  0
   17.9570  133.7433    2.6194 C   0  0  0  0  0  0  0  0  0  0  0  0
   18.5764  134.0518    1.4483 N   0  0  0  0  0  0  0  0  0  0  0  0
   18.0958  134.9843    0.4179 C   0  0  0  0  0  0  0  0  0  0  0  0
   20.8372  132.8181   -2.1872 C   0  0  0  0  0  0  0  0  0  0  0  0
   20.2230  132.4104   -3.3667 C   0  0  0  0  0  0  0  0  0  0  0  0
   18.8726  132.0763   -3.3682 C   0  0  0  0  0  0  0  0  0  0  0  0
   18.2357  131.6535   -4.5911 C   0  0  0  0  0  0  0  0  0  0  0  0
   17.7243  131.3158   -5.5725 N   0  0  0  0  0  0  0  0  0  0  0  0
   16.1847  133.5188   -3.7784 C   0  0  0  0  0  0  0  0  0  0  0  0
   16.2612  136.3303   -4.5515 C   0  0  0  0  0  0  0  0  0  0  0  0
   16.6197  137.7093   -5.1207 C   0  0  0  0  0  0  0  0  0  0  0  0
   16.8401  137.8595   -6.6327 C   0  0  0  0  0  0  0  0  0  0  0  0
   17.7315  136.8378   -7.3532 C   0  0  0  0  0  0  0  0  0  0  0  0
   17.3093  135.4180   -7.4538 N   0  0  0  0  0  0  0  0  0  0  0  0
   17.9384  134.6460   -8.5370 C   0  0  0  0  0  0  0  0  0  0  0  0
   16.3806  134.7292   -6.6315 C   0  0  0  0  0  0  0  0  0  0  0  0
   16.1942  133.5525   -6.8938 O   0  0  0  0  0  0  0  0  0  0  0  0
   13.6233  137.1443   -4.5128 H   0  0  0  0  0  0  0  0  0  0  0  0
   12.4272  136.7051   -5.5341 H   0  0  0  0  0  0  0  0  0  0  0  0
   12.9533  135.6598   -4.3951 H   0  0  0  0  0  0  0  0  0  0  0  0
   14.5067  136.5769   -6.6419 H   0  0  0  0  0  0  0  0  0  0  0  0
   13.8366  135.0923   -6.5242 H   0  0  0  0  0  0  0  0  0  0  0  0
   13.1577  134.1968   -4.9756 H   0  0  0  0  0  0  0  0  0  0  0  0
   12.5853  132.3935   -3.5132 H   0  0  0  0  0  0  0  0  0  0  0  0
   14.2681  131.2967   -2.2176 H   0  0  0  0  0  0  0  0  0  0  0  0
   18.2112  132.6097   -0.1579 H   0  0  0  0  0  0  0  0  0  0  0  0
   21.9921  134.8259   -0.5517 H   0  0  0  0  0  0  0  0  0  0  0  0
   20.5721  135.4110    0.0031 H   0  0  0  0  0  0  0  0  0  0  0  0
   21.7580  135.0145    1.0534 H   0  0  0  0  0  0  0  0  0  0  0  0
   21.9210  131.7143   -0.1760 H   0  0  0  0  0  0  0  0  0  0  0  0
   22.7375  132.9139    0.5730 H   0  0  0  0  0  0  0  0  0  0  0  0
   21.7300  131.9544    1.4279 H   0  0  0  0  0  0  0  0  0  0  0  0
   20.5350  131.9595    2.8107 H   0  0  0  0  0  0  0  0  0  0  0  0
   17.0829  134.1196    2.9266 H   0  0  0  0  0  0  0  0  0  0  0  0
   18.7489  135.0103   -0.3389 H   0  0  0  0  0  0  0  0  0  0  0  0
   17.2059  134.6779    0.0799 H   0  0  0  0  0  0  0  0  0  0  0  0
   18.0057  135.8990    0.8120 H   0  0  0  0  0  0  0  0  0  0  0  0
   21.8077  133.0591   -2.1819 H   0  0  0  0  0  0  0  0  0  0  0  0
   20.7521  132.3574   -4.2136 H   0  0  0  0  0  0  0  0  0  0  0  0
   17.1367  133.8166   -3.8487 H   0  0  0  0  0  0  0  0  0  0  0  0
   17.1140  135.9189   -4.2299 H   0  0  0  0  0  0  0  0  0  0  0  0
   15.6527  136.4873   -3.7736 H   0  0  0  0  0  0  0  0  0  0  0  0
   17.4644  138.0004   -4.6717 H   0  0  0  0  0  0  0  0  0  0  0  0
   15.8776  138.3310   -4.8702 H   0  0  0  0  0  0  0  0  0  0  0  0
   15.9399  137.8222   -7.0665 H   0  0  0  0  0  0  0  0  0  0  0  0
   17.2454  138.7612   -6.7828 H   0  0  0  0  0  0  0  0  0  0  0  0
   17.8509  137.1695   -8.2890 H   0  0  0  0  0  0  0  0  0  0  0  0
   18.6137  136.8430   -6.8825 H   0  0  0  0  0  0  0  0  0  0  0  0
   17.3818  134.7184   -9.3646 H   0  0  0  0  0  0  0  0  0  0  0  0
   18.8527  135.0087   -8.7173 H   0  0  0  0  0  0  0  0  0  0  0  0
   18.0082  133.6862   -8.2651 H   0  0  0  0  0  0  0  0  0  0  0  0
  1  2  1  0  0  0  0
  2  3  1  0  0  0  0
  3  4  1  0  0  0  0
  4  5  2  0  0  0  0
  5  6  1  0  0  0  0
  6  7  2  0  0  0  0
  7  8  1  0  0  0  0
  8  9  1  0  0  0  0
  9 10  1  0  0  0  0
 10 11  2  0  0  0  0
 11 12  1  0  0  0  0
 12 13  1  0  0  0  0
 13 14  1  0  0  0  0
 13 15  1  0  0  0  0
 13 16  1  0  0  0  0
 16 17  2  0  0  0  0
 17 18  1  0  0  0  0
 18 19  2  0  0  0  0
 19 20  1  0  0  0  0
 20 21  1  0  0  0  0
 12 22  2  0  0  0  0
 22 23  1  0  0  0  0
 23 24  2  0  0  0  0
 24 25  1  0  0  0  0
 25 26  3  0  0  0  0
  8 27  2  0  0  0  0
  3 28  1  0  0  0  0
 28 29  1  0  0  0  0
 29 30  1  0  0  0  0
 30 31  1  0  0  0  0
 31 32  1  0  0  0  0
 32 33  1  0  0  0  0
 32 34  1  0  0  0  0
 34 35  2  0  0  0  0
 34  3  1  0  0  0  0
 27  4  1  0  0  0  0
 24 10  1  0  0  0  0
 20 16  1  0  0  0  0
  1 36  1  0  0  0  0
  1 37  1  0  0  0  0
  1 38  1  0  0  0  0
  2 39  1  0  0  0  0
  2 40  1  0  0  0  0
  5 41  1  0  0  0  0
  6 42  1  0  0  0  0
  7 43  1  0  0  0  0
 11 44  1  0  0  0  0
 14 45  1  0  0  0  0
 14 46  1  0  0  0  0
 14 47  1  0  0  0  0
 15 48  1  0  0  0  0
 15 49  1  0  0  0  0
 15 50  1  0  0  0  0
 17 51  1  0  0  0  0
 19 52  1  0  0  0  0
 21 53  1  0  0  0  0
 21 54  1  0  0  0  0
 21 55  1  0  0  0  0
 22 56  1  0  0  0  0
 23 57  1  0  0  0  0
 27 58  1  0  0  0  0
 28 59  1  0  0  0  0
 28 60  1  0  0  0  0
 29 61  1  0  0  0  0
 29 62  1  0  0  0  0
 30 63  1  0  0  0  0
 30 64  1  0  0  0  0
 31 65  1  0  0  0  0
 31 66  1  0  0  0  0
 33 67  1  0  0  0  0
 33 68  1  0  0  0  0
 33 69  1  0  0  0  0
M  CHG  1  15   1
M  END
>  <docking-score>
-27.92

$$$$
1MZC_BNE_3
foFlexX   03192112163D 1   1.00000     0.00000     0
FlexX 4.5.0 fol007
 69 72  0  0  0  0            999 V2000
   13.7484  136.6570   -4.3551 C   0  0  0  0  0  0  0  0  0  0  0  0
   14.3469  136.0467   -5.6337 C   0  0  0  0  0  0  0  0  0  0  0  0
   15.5782  135.1639   -5.4983 C   0  0  2  0  0  0  0  0  0  0  0  0
   15.2541  133.9746   -4.6100 C   0  0  0  0  0  0  0  0  0  0  0  0
   13.9520  133.4891   -4.5466 C   0  0  0  0  0  0  0  0  0  0  0  0
   13.6783  132.3992   -3.7265 C   0  0  0  0  0  0  0  0  0  0  0  0
   14.6827  131.7963   -2.9767 C   0  0  0  0  0  0  0  0  0  0  0  0
   15.9779  132.2980   -3.0547 C   0  0  0  0  0  0  0  0  0  0  0  0
   16.9973  131.6958   -2.3010 O   0  0  0  0  0  0  0  0  0  0  0  0
   18.2874  132.0929   -2.2945 C   0  0  0  0  0  0  0  0  0  0  0  0
   18.8539  132.5017   -1.0917 C   0  0  0  0  0  0  0  0  0  0  0  0
   20.1828  132.9125   -1.0774 C   0  0  0  0  0  0  0  0  0  0  0  0
   20.8122  133.3617    0.2316 C   0  0  2  0  0  0  0  0  0  0  0  0
   21.2856  134.8338    0.1888 C   0  0  0  0  0  0  0  0  0  0  0  0
   21.9791  132.4923    0.4919 N   0  3  0  0  0  0  0  0  0  0  0  0
   19.7656  133.2595    1.3530 C   0  0  0  0  0  0  0  0  0  0  0  0
   19.8745  132.4987    2.4799 C   0  0  0  0  0  0  0  0  0  0  0  0
   18.7371  132.6975    3.2048 N   0  0  0  0  0  0  0  0  0  0  0  0
   17.9651  133.5408    2.5534 C   0  0  0  0  0  0  0  0  0  0  0  0
   18.5768  133.9171    1.3982 N   0  0  0  0  0  0  0  0  0  0  0  0
   18.0521  134.8474    0.3875 C   0  0  0  0  0  0  0  0  0  0  0  0
   20.9433  132.9187   -2.2423 C   0  0  0  0  0  0  0  0  0  0  0  0
   20.3663  132.5077   -3.4392 C   0  0  0  0  0  0  0  0  0  0  0  0
   19.0383  132.0946   -3.4654 C   0  0  0  0  0  0  0  0  0  0  0  0
   18.4399  131.6684   -4.7064 C   0  0  0  0  0  0  0  0  0  0  0  0
   17.9594  131.3280   -5.7024 N   0  0  0  0  0  0  0  0  0  0  0  0
   16.2737  133.3865   -3.8684 C   0  0  0  0  0  0  0  0  0  0  0  0
   16.6072  135.9594   -4.6868 C   0  0  0  0  0  0  0  0  0  0  0  0
   17.2715  137.1726   -5.3394 C   0  0  0  0  0  0  0  0  0  0  0  0
   18.2880  136.8988   -6.4522 C   0  0  0  0  0  0  0  0  0  0  0  0
   17.7507  136.3780   -7.7938 C   0  0  0  0  0  0  0  0  0  0  0  0
   16.8883  135.1673   -7.8559 N   0  0  0  0  0  0  0  0  0  0  0  0
   17.0130  134.4021   -9.1062 C   0  0  0  0  0  0  0  0  0  0  0  0
   15.9687  134.6461   -6.8990 C   0  0  0  0  0  0  0  0  0  0  0  0
   15.4025  133.6185   -7.2383 O   0  0  0  0  0  0  0  0  0  0  0  0
   14.4327  137.2340   -3.9093 H   0  0  0  0  0  0  0  0  0  0  0  0
   12.9495  137.2097   -4.5919 H   0  0  0  0  0  0  0  0  0  0  0  0
   13.4740  135.9239   -3.7327 H   0  0  0  0  0  0  0  0  0  0  0  0
   14.5902  136.8049   -6.2387 H   0  0  0  0  0  0  0  0  0  0  0  0
   13.6315  135.4948   -6.0622 H   0  0  0  0  0  0  0  0  0  0  0  0
   13.2240  133.9168   -5.0824 H   0  0  0  0  0  0  0  0  0  0  0  0
   12.7450  132.0438   -3.6752 H   0  0  0  0  0  0  0  0  0  0  0  0
   14.4768  131.0133   -2.3898 H   0  0  0  0  0  0  0  0  0  0  0  0
   18.3140  132.5003   -0.2500 H   0  0  0  0  0  0  0  0  0  0  0  0
   21.9605  134.9459   -0.5405 H   0  0  0  0  0  0  0  0  0  0  0  0
   20.5027  135.4307    0.0131 H   0  0  0  0  0  0  0  0  0  0  0  0
   21.6994  135.0765    1.0662 H   0  0  0  0  0  0  0  0  0  0  0  0
   22.0705  131.8264   -0.2486 H   0  0  0  0  0  0  0  0  0  0  0  0
   22.8068  133.0513    0.5415 H   0  0  0  0  0  0  0  0  0  0  0  0
   21.8494  132.0110    1.3588 H   0  0  0  0  0  0  0  0  0  0  0  0
   20.6424  131.9078    2.7272 H   0  0  0  0  0  0  0  0  0  0  0  0
   17.0671  133.8563    2.8602 H   0  0  0  0  0  0  0  0  0  0  0  0
   18.7101  134.9325   -0.3607 H   0  0  0  0  0  0  0  0  0  0  0  0
   17.1854  134.4983    0.0311 H   0  0  0  0  0  0  0  0  0  0  0  0
   17.9039  135.7440    0.8047 H   0  0  0  0  0  0  0  0  0  0  0  0
   21.8977  133.2164   -2.2192 H   0  0  0  0  0  0  0  0  0  0  0  0
   20.9062  132.5092   -4.2810 H   0  0  0  0  0  0  0  0  0  0  0  0
   17.2070  133.7418   -3.9196 H   0  0  0  0  0  0  0  0  0  0  0  0
   17.3369  135.3247   -4.4323 H   0  0  0  0  0  0  0  0  0  0  0  0
   16.1451  136.2842   -3.8616 H   0  0  0  0  0  0  0  0  0  0  0  0
   17.7433  137.6811   -4.6192 H   0  0  0  0  0  0  0  0  0  0  0  0
   16.5457  137.7405   -5.7277 H   0  0  0  0  0  0  0  0  0  0  0  0
   18.7694  137.7560   -6.6351 H   0  0  0  0  0  0  0  0  0  0  0  0
   18.9355  136.2202   -6.1055 H   0  0  0  0  0  0  0  0  0  0  0  0
   17.2219  137.1247   -8.1974 H   0  0  0  0  0  0  0  0  0  0  0  0
   18.5490  136.1881   -8.3653 H   0  0  0  0  0  0  0  0  0  0  0  0
   16.3505  134.7430   -9.7732 H   0  0  0  0  0  0  0  0  0  0  0  0
   17.9380  134.5081   -9.4711 H   0  0  0  0  0  0  0  0  0  0  0  0
   16.8352  133.4350   -8.9243 H   0  0  0  0  0  0  0  0  0  0  0  0
  1  2  1  0  0  0  0
  2  3  1  0  0  0  0
  3  4  1  0  0  0  0
  4  5  2  0  0  0  0
  5  6  1  0  0  0  0
  6  7  2  0  0  0  0
  7  8  1  0  0  0  0
  8  9  1  0  0  0  0
  9 10  1  0  0  0  0
 10 11  2  0  0  0  0
 11 12  1  0  0  0  0
 12 13  1  0  0  0  0
 13 14  1  0  0  0  0
 13 15  1  0  0  0  0
 13 16  1  0  0  0  0
 16 17  2  0  0  0  0
 17 18  1  0  0  0  0
 18 19  2  0  0  0  0
 19 20  1  0  0  0  0
 20 21  1  0  0  0  0
 12 22  2  0  0  0  0
 22 23  1  0  0  0  0
 23 24  2  0  0  0  0
 24 25  1  0  0  0  0
 25 26  3  0  0  0  0
  8 27  2  0  0  0  0
  3 28  1  0  0  0  0
 28 29  1  0  0  0  0
 29 30  1  0  0  0  0
 30 31  1  0  0  0  0
 31 32  1  0  0  0  0
 32 33  1  0  0  0  0
 32 34  1  0  0  0  0
 34 35  2  0  0  0  0
 34  3  1  0  0  0  0
 27  4  1  0  0  0  0
 24 10  1  0  0  0  0
 20 16  1  0  0  0  0
  1 36  1  0  0  0  0
  1 37  1  0  0  0  0
  1 38  1  0  0  0  0
  2 39  1  0  0  0  0
  2 40  1  0  0  0  0
  5 41  1  0  0  0  0
  6 42  1  0  0  0  0
  7 43  1  0  0  0  0
 11 44  1  0  0  0  0
 14 45  1  0  0  0  0
 14 46  1  0  0  0  0
 14 47  1  0  0  0  0
 15 48  1  0  0  0  0
 15 49  1  0  0  0  0
 15 50  1  0  0  0  0
 17 51  1  0  0  0  0
 19 52  1  0  0  0  0
 21 53  1  0  0  0  0
 21 54  1  0  0  0  0
 21 55  1  0  0  0  0
 22 56  1  0  0  0  0
 23 57  1  0  0  0  0
 27 58  1  0  0  0  0
 28 59  1  0  0  0  0
 28 60  1  0  0  0  0
 29 61  1  0  0  0  0
 29 62  1  0  0  0  0
 30 63  1  0  0  0  0
 30 64  1  0  0  0  0
 31 65  1  0  0  0  0
 31 66  1  0  0  0  0
 33 67  1  0  0  0  0
 33 68  1  0  0  0  0
 33 69  1  0  0  0  0
M  CHG  1  15   1
M  END
>  <docking-score>
-27.91

$$$$
1LD7_U66_1
foFlexX   03192112163D 1   1.00000     0.00000     0
FlexX 4.5.0 fol007
 62 67  0  0  0  0            999 V2000
   18.3832  137.3870   -8.8926 N   0  0  0  0  0  0  0  0  0  0  0  0
   17.4604  137.5047   -8.2042 C   0  0  0  0  0  0  0  0  0  0  0  0
   16.2850  137.6560   -7.3238 C   0  0  2  0  0  0  0  0  0  0  0  0
   16.0274  139.1537   -7.0541 C   0  0  0  0  0  0  0  0  0  0  0  0
   17.0790  139.6848   -6.1216 C   0  0  0  0  0  0  0  0  0  0  0  0
   17.4130  138.9656   -5.0369 C   0  0  0  0  0  0  0  0  0  0  0  0
   16.6307  137.7065   -4.7408 C   0  0  0  0  0  0  0  0  0  0  0  0
   16.4690  136.8235   -6.0072 C   0  0  1  0  0  0  0  0  0  0  0  0
   15.3259  135.9782   -5.8533 O   0  0  0  0  0  0  0  0  0  0  0  0
   15.2172  134.8579   -5.0137 C   0  0  0  0  0  0  0  0  0  0  0  0
   13.9649  134.2450   -4.9216 C   0  0  0  0  0  0  0  0  0  0  0  0
   13.7768  133.1206   -4.1203 C   0  0  0  0  0  0  0  0  0  0  0  0
   14.8467  132.5859   -3.3929 C   0  0  0  0  0  0  0  0  0  0  0  0
   14.6521  131.4510   -2.5924 C   0  0  0  0  0  0  0  0  0  0  0  0
   15.7135  130.9148   -1.8658 C   0  0  0  0  0  0  0  0  0  0  0  0
   16.9753  131.5039   -1.9298 C   0  0  0  0  0  0  0  0  0  0  0  0
   17.1982  132.6374   -2.7277 C   0  0  0  0  0  0  0  0  0  0  0  0
   16.1279  133.1925   -3.4680 C   0  0  0  0  0  0  0  0  0  0  0  0
   16.3023  134.3279   -4.2855 C   0  0  0  0  0  0  0  0  0  0  0  0
   18.5058  133.2317   -2.7380 N   0  0  0  0  0  0  0  0  0  0  0  0
   19.6901  132.4946   -3.1648 C   0  0  0  0  0  0  0  0  0  0  0  0
   20.7904  132.7987   -2.1309 C   0  0  0  0  0  0  0  0  0  0  0  0
   20.3022  134.0151   -1.3164 C   0  0  1  0  0  0  0  0  0  0  0  0
   21.1137  135.2395   -1.5061 N   0  3  0  0  0  0  0  0  0  0  0  0
   21.2455  135.7472   -2.8917 C   0  0  0  0  0  0  0  0  0  0  0  0
   20.0851  136.6706   -3.3124 C   0  0  0  0  0  0  0  0  0  0  0  0
   20.4304  137.5243   -4.5105 C   0  0  0  0  0  0  0  0  0  0  0  0
   21.3620  137.2331   -5.4907 C   0  0  0  0  0  0  0  0  0  0  0  0
   21.3498  138.2018   -6.4270 N   0  0  0  0  0  0  0  0  0  0  0  0
   20.3998  139.0620   -6.0083 C   0  0  0  0  0  0  0  0  0  0  0  0
   19.8173  138.6769   -4.8540 N   0  0  0  0  0  0  0  0  0  0  0  0
   18.6462  139.3124   -4.2435 C   0  0  0  0  0  0  0  0  0  0  0  0
   18.8899  134.1619   -1.7407 C   0  0  0  0  0  0  0  0  0  0  0  0
   18.0804  134.9691   -1.2100 O   0  0  0  0  0  0  0  0  0  0  0  0
   15.4901  137.2909   -7.8085 H   0  0  0  0  0  0  0  0  0  0  0  0
   15.1253  139.2668   -6.6377 H   0  0  0  0  0  0  0  0  0  0  0  0
   16.0620  139.6582   -7.9168 H   0  0  0  0  0  0  0  0  0  0  0  0
   17.5239  140.5612   -6.3056 H   0  0  0  0  0  0  0  0  0  0  0  0
   15.7239  137.9596   -4.4037 H   0  0  0  0  0  0  0  0  0  0  0  0
   17.1129  137.1823   -4.0390 H   0  0  0  0  0  0  0  0  0  0  0  0
   17.2818  136.2487   -6.1027 H   0  0  0  0  0  0  0  0  0  0  0  0
   13.1937  134.6181   -5.4373 H   0  0  0  0  0  0  0  0  0  0  0  0
   12.8740  132.6940   -4.0647 H   0  0  0  0  0  0  0  0  0  0  0  0
   13.7487  131.0251   -2.5428 H   0  0  0  0  0  0  0  0  0  0  0  0
   15.5695  130.1051   -1.2969 H   0  0  0  0  0  0  0  0  0  0  0  0
   17.7300  131.1149   -1.4015 H   0  0  0  0  0  0  0  0  0  0  0  0
   17.2016  134.7603   -4.3493 H   0  0  0  0  0  0  0  0  0  0  0  0
   19.9767  132.7976   -4.0737 H   0  0  0  0  0  0  0  0  0  0  0  0
   19.4974  131.5136   -3.1858 H   0  0  0  0  0  0  0  0  0  0  0  0
   21.6495  133.0157   -2.5945 H   0  0  0  0  0  0  0  0  0  0  0  0
   20.9259  132.0118   -1.5290 H   0  0  0  0  0  0  0  0  0  0  0  0
   20.3174  133.7728   -0.3463 H   0  0  0  0  0  0  0  0  0  0  0  0
   22.0342  135.0478   -1.1656 H   0  0  0  0  0  0  0  0  0  0  0  0
   20.6993  135.9650   -0.9566 H   0  0  0  0  0  0  0  0  0  0  0  0
   21.2723  134.9660   -3.5154 H   0  0  0  0  0  0  0  0  0  0  0  0
   22.1013  136.2597   -2.9625 H   0  0  0  0  0  0  0  0  0  0  0  0
   19.8587  137.2710   -2.5454 H   0  0  0  0  0  0  0  0  0  0  0  0
   19.2917  136.1057   -3.5391 H   0  0  0  0  0  0  0  0  0  0  0  0
   21.9539  136.4272   -5.5026 H   0  0  0  0  0  0  0  0  0  0  0  0
   20.1531  139.8965   -6.5010 H   0  0  0  0  0  0  0  0  0  0  0  0
   18.7707  140.3046   -4.2383 H   0  0  0  0  0  0  0  0  0  0  0  0
   18.5411  138.9847   -3.3046 H   0  0  0  0  0  0  0  0  0  0  0  0
  1  2  3  0  0  0  0
  2  3  1  0  0  0  0
  3  4  1  0  0  0  0
  4  5  1  0  0  0  0
  5  6  2  0  0  0  0
  6  7  1  0  0  0  0
  7  8  1  0  0  0  0
  8  9  1  0  0  0  0
  9 10  1  0  0  0  0
 10 11  2  0  0  0  0
 11 12  1  0  0  0  0
 12 13  2  0  0  0  0
 13 14  1  0  0  0  0
 14 15  2  0  0  0  0
 15 16  1  0  0  0  0
 16 17  2  0  0  0  0
 17 18  1  0  0  0  0
 18 19  2  0  0  0  0
 17 20  1  0  0  0  0
 20 21  1  0  0  0  0
 21 22  1  0  0  0  0
 22 23  1  0  0  0  0
 23 24  1  0  0  0  0
 24 25  1  0  0  0  0
 25 26  1  0  0  0  0
 26 27  1  0  0  0  0
 27 28  2  0  0  0  0
 28 29  1  0  0  0  0
 29 30  2  0  0  0  0
 30 31  1  0  0  0  0
 31 32  1  0  0  0  0
 23 33  1  0  0  0  0
 33 34  2  0  0  0  0
  8  3  1  0  0  0  0
 19 10  1  0  0  0  0
 33 20  1  0  0  0  0
 32  6  1  0  0  0  0
 18 13  1  0  0  0  0
 31 27  1  0  0  0  0
  3 35  1  0  0  0  0
  4 36  1  0  0  0  0
  4 37  1  0  0  0  0
  5 38  1  0  0  0  0
  7 39  1  0  0  0  0
  7 40  1  0  0  0  0
  8 41  1  0  0  0  0
 11 42  1  0  0  0  0
 12 43  1  0  0  0  0
 14 44  1  0  0  0  0
 15 45  1  0  0  0  0
 16 46  1  0  0  0  0
 19 47  1  0  0  0  0
 21 48  1  0  0  0  0
 21 49  1  0  0  0  0
 22 50  1  0  0  0  0
 22 51  1  0  0  0  0
 23 52  1  0  0  0  0
 24 53  1  0  0  0  0
 24 54  1  0  0  0  0
 25 55  1  0  0  0  0
 25 56  1  0  0  0  0
 26 57  1  0  0  0  0
 26 58  1  0  0  0  0
 28 59  1  0  0  0  0
 30 60  1  0  0  0  0
 32 61  1  0  0  0  0
 32 62  1  0  0  0  0
M  CHG  1  24   1
M  END
>  <docking-score>
-20.68

$$$$
1LD7_U66_2
foFlexX   03192112163D 1   1.00000     0.00000     0
FlexX 4.5.0 fol007
 62 67  0  0  0  0            999 V2000
   18.0477  137.3482   -9.2447 N   0  0  0  0  0  0  0  0  0  0  0  0
   17.1492  137.5580   -8.5460 C   0  0  0  0  0  0  0  0  0  0  0  0
   16.0049  137.8261   -7.6526 C   0  0  2  0  0  0  0  0  0  0  0  0
   16.0254  139.3052   -7.2121 C   0  0  0  0  0  0  0  0  0  0  0  0
   17.1383  139.5209   -6.2260 C   0  0  0  0  0  0  0  0  0  0  0  0
   17.3106  138.6338   -5.2317 C   0  0  0  0  0  0  0  0  0  0  0  0
   16.3016  137.5183   -5.0814 C   0  0  0  0  0  0  0  0  0  0  0  0
   16.0040  136.8303   -6.4407 C   0  0  1  0  0  0  0  0  0  0  0  0
   14.7206  136.2022   -6.3835 O   0  0  0  0  0  0  0  0  0  0  0  0
   14.3882  135.0343   -5.6782 C   0  0  0  0  0  0  0  0  0  0  0  0
   13.0421  134.6604   -5.6555 C   0  0  0  0  0  0  0  0  0  0  0  0
   12.6317  133.5078   -4.9886 C   0  0  0  0  0  0  0  0  0  0  0  0
   13.5683  132.7033   -4.3289 C   0  0  0  0  0  0  0  0  0  0  0  0
   13.1497  131.5418   -3.6640 C   0  0  0  0  0  0  0  0  0  0  0  0
   14.0777  130.7375   -3.0053 C   0  0  0  0  0  0  0  0  0  0  0  0
   15.4282  131.0832   -3.0027 C   0  0  0  0  0  0  0  0  0  0  0  0
   15.8744  132.2378   -3.6653 C   0  0  0  0  0  0  0  0  0  0  0  0
   14.9414  133.0638   -4.3355 C   0  0  0  0  0  0  0  0  0  0  0  0
   15.3406  134.2315   -5.0172 C   0  0  0  0  0  0  0  0  0  0  0  0
   17.2697  132.5740   -3.6090 N   0  0  0  0  0  0  0  0  0  0  0  0
   18.3044  131.6812   -4.1192 C   0  0  0  0  0  0  0  0  0  0  0  0
   19.4210  131.6549   -3.0587 C   0  0  0  0  0  0  0  0  0  0  0  0
   19.1514  132.8410   -2.1090 C   0  0  1  0  0  0  0  0  0  0  0  0
   20.1804  133.9052   -2.1578 N   0  3  0  0  0  0  0  0  0  0  0  0
   20.4325  134.5328   -3.4759 C   0  0  0  0  0  0  0  0  0  0  0  0
   19.4731  135.6988   -3.7861 C   0  0  0  0  0  0  0  0  0  0  0  0
   19.9955  136.6027   -4.8786 C   0  0  0  0  0  0  0  0  0  0  0  0
   20.8763  136.2551   -5.8870 C   0  0  0  0  0  0  0  0  0  0  0  0
   21.0636  137.3085   -6.7056 N   0  0  0  0  0  0  0  0  0  0  0  0
   20.2820  138.2784   -6.1896 C   0  0  0  0  0  0  0  0  0  0  0  0
   19.6148  137.8811   -5.0864 N   0  0  0  0  0  0  0  0  0  0  0  0
   18.5704  138.6514   -4.4054 C   0  0  0  0  0  0  0  0  0  0  0  0
   17.8001  133.2967   -2.5118 C   0  0  0  0  0  0  0  0  0  0  0  0
   17.1444  134.1760   -1.8907 O   0  0  0  0  0  0  0  0  0  0  0  0
   15.1660  137.6736   -8.1750 H   0  0  0  0  0  0  0  0  0  0  0  0
   15.1518  139.5374   -6.7843 H   0  0  0  0  0  0  0  0  0  0  0  0
   16.1707  139.8887   -8.0111 H   0  0  0  0  0  0  0  0  0  0  0  0
   17.7423  140.3136   -6.3086 H   0  0  0  0  0  0  0  0  0  0  0  0
   15.4511  137.8969   -4.7162 H   0  0  0  0  0  0  0  0  0  0  0  0
   16.6634  136.8369   -4.4451 H   0  0  0  0  0  0  0  0  0  0  0  0
   16.6973  136.1280   -6.6027 H   0  0  0  0  0  0  0  0  0  0  0  0
   12.3644  135.2273   -6.1239 H   0  0  0  0  0  0  0  0  0  0  0  0
   11.6644  133.2543   -4.9813 H   0  0  0  0  0  0  0  0  0  0  0  0
   12.1820  131.2898   -3.6625 H   0  0  0  0  0  0  0  0  0  0  0  0
   13.7740  129.9100   -2.5330 H   0  0  0  0  0  0  0  0  0  0  0  0
   16.0864  130.5025   -2.5237 H   0  0  0  0  0  0  0  0  0  0  0  0
   16.3059  134.4922   -5.0321 H   0  0  0  0  0  0  0  0  0  0  0  0
   18.6608  132.0261   -4.9876 H   0  0  0  0  0  0  0  0  0  0  0  0
   17.9329  130.7624   -4.2526 H   0  0  0  0  0  0  0  0  0  0  0  0
   20.3146  131.7581   -3.4953 H   0  0  0  0  0  0  0  0  0  0  0  0
   19.3953  130.7935   -2.5514 H   0  0  0  0  0  0  0  0  0  0  0  0
   19.1015  132.4919   -1.1733 H   0  0  0  0  0  0  0  0  0  0  0  0
   21.0420  133.5072   -1.8427 H   0  0  0  0  0  0  0  0  0  0  0  0
   19.8973  134.6284   -1.5279 H   0  0  0  0  0  0  0  0  0  0  0  0
   20.3259  133.8361   -4.1854 H   0  0  0  0  0  0  0  0  0  0  0  0
   21.3700  134.8805   -3.4884 H   0  0  0  0  0  0  0  0  0  0  0  0
   19.3469  136.2401   -2.9549 H   0  0  0  0  0  0  0  0  0  0  0  0
   18.5931  135.3218   -4.0752 H   0  0  0  0  0  0  0  0  0  0  0  0
   21.3078  135.3591   -5.9922 H   0  0  0  0  0  0  0  0  0  0  0  0
   20.2052  139.1946   -6.5826 H   0  0  0  0  0  0  0  0  0  0  0  0
   18.8773  139.5956   -4.2862 H   0  0  0  0  0  0  0  0  0  0  0  0
   18.3871  138.2450   -3.5102 H   0  0  0  0  0  0  0  0  0  0  0  0
  1  2  3  0  0  0  0
  2  3  1  0  0  0  0
  3  4  1  0  0  0  0
  4  5  1  0  0  0  0
  5  6  2  0  0  0  0
  6  7  1  0  0  0  0
  7  8  1  0  0  0  0
  8  9  1  0  0  0  0
  9 10  1  0  0  0  0
 10 11  2  0  0  0  0
 11 12  1  0  0  0  0
 12 13  2  0  0  0  0
 13 14  1  0  0  0  0
 14 15  2  0  0  0  0
 15 16  1  0  0  0  0
 16 17  2  0  0  0  0
 17 18  1  0  0  0  0
 18 19  2  0  0  0  0
 17 20  1  0  0  0  0
 20 21  1  0  0  0  0
 21 22  1  0  0  0  0
 22 23  1  0  0  0  0
 23 24  1  0  0  0  0
 24 25  1  0  0  0  0
 25 26  1  0  0  0  0
 26 27  1  0  0  0  0
 27 28  2  0  0  0  0
 28 29  1  0  0  0  0
 29 30  2  0  0  0  0
 30 31  1  0  0  0  0
 31 32  1  0  0  0  0
 23 33  1  0  0  0  0
 33 34  2  0  0  0  0
  8  3  1  0  0  0  0
 19 10  1  0  0  0  0
 33 20  1  0  0  0  0
 32  6  1  0  0  0  0
 18 13  1  0  0  0  0
 31 27  1  0  0  0  0
  3 35  1  0  0  0  0
  4 36  1  0  0  0  0
  4 37  1  0  0  0  0
  5 38  1  0  0  0  0
  7 39  1  0  0  0  0
  7 40  1  0  0  0  0
  8 41  1  0  0  0  0
 11 42  1  0  0  0  0
 12 43  1  0  0  0  0
 14 44  1  0  0  0  0
 15 45  1  0  0  0  0
 16 46  1  0  0  0  0
 19 47  1  0  0  0  0
 21 48  1  0  0  0  0
 21 49  1  0  0  0  0
 22 50  1  0  0  0  0
 22 51  1  0  0  0  0
 23 52  1  0  0  0  0
 24 53  1  0  0  0  0
 24 54  1  0  0  0  0
 25 55  1  0  0  0  0
 25 56  1  0  0  0  0
 26 57  1  0  0  0  0
 26 58  1  0  0  0  0
 28 59  1  0  0  0  0
 30 60  1  0  0  0  0
 32 61  1  0  0  0  0
 32 62  1  0  0  0  0
M  CHG  1  24   1
M  END
>  <docking-score>
-19.60

$$$$
1LD7_U66_3
foFlexX   03192112163D 1   1.00000     0.00000     0
FlexX 4.5.0 fol007
 62 67  0  0  0  0            999 V2000
   17.0353  134.0354   -8.9663 N   0  0  0  0  0  0  0  0  0  0  0  0
   16.3073  134.0727   -8.0674 C   0  0  0  0  0  0  0  0  0  0  0  0
   15.3793  134.1231   -6.9203 C   0  0  2  0  0  0  0  0  0  0  0  0
   14.2230  135.0975   -7.2300 C   0  0  0  0  0  0  0  0  0  0  0  0
   14.7285  136.5113   -7.1751 C   0  0  0  0  0  0  0  0  0  0  0  0
   15.5208  136.8821   -6.1552 C   0  0  0  0  0  0  0  0  0  0  0  0
   15.7738  135.8889   -5.0441 C   0  0  0  0  0  0  0  0  0  0  0  0
   16.1476  134.4898   -5.6028 C   0  0  1  0  0  0  0  0  0  0  0  0
   15.8488  133.4923   -4.6228 O   0  0  0  0  0  0  0  0  0  0  0  0
   16.5539  133.2460   -3.4336 C   0  0  0  0  0  0  0  0  0  0  0  0
   16.0168  132.3030   -2.5535 C   0  0  0  0  0  0  0  0  0  0  0  0
   16.6622  131.9920   -1.3583 C   0  0  0  0  0  0  0  0  0  0  0  0
   17.8653  132.6234   -1.0214 C   0  0  0  0  0  0  0  0  0  0  0  0
   18.5127  132.3022    0.1804 C   0  0  0  0  0  0  0  0  0  0  0  0
   19.7103  132.9280    0.5211 C   0  0  0  0  0  0  0  0  0  0  0  0
   20.2719  133.8779   -0.3307 C   0  0  0  0  0  0  0  0  0  0  0  0
   19.6470  134.2137   -1.5423 C   0  0  0  0  0  0  0  0  0  0  0  0
   18.4294  133.5870   -1.8980 C   0  0  0  0  0  0  0  0  0  0  0  0
   17.7654  133.8883   -3.1046 C   0  0  0  0  0  0  0  0  0  0  0  0
   20.2432  135.2219   -2.3738 N   0  0  0  0  0  0  0  0  0  0  0  0
   21.5903  135.0837   -2.9162 C   0  0  0  0  0  0  0  0  0  0  0  0
   22.2875  136.4408   -2.7058 C   0  0  0  0  0  0  0  0  0  0  0  0
   21.1767  137.4557   -2.3633 C   0  0  1  0  0  0  0  0  0  0  0  0
   20.9752  138.5060   -3.3880 N   0  3  0  0  0  0  0  0  0  0  0  0
   20.6530  138.0494   -4.7602 C   0  0  0  0  0  0  0  0  0  0  0  0
   19.1472  137.8026   -4.9794 C   0  0  0  0  0  0  0  0  0  0  0  0
   18.7717  137.7810   -6.4429 C   0  0  0  0  0  0  0  0  0  0  0  0
   19.6009  137.4628   -7.5034 C   0  0  0  0  0  0  0  0  0  0  0  0
   18.8977  137.4961   -8.6520 N   0  0  0  0  0  0  0  0  0  0  0  0
   17.6461  137.8214   -8.2705 C   0  0  0  0  0  0  0  0  0  0  0  0
   17.5335  137.9933   -6.9372 N   0  0  0  0  0  0  0  0  0  0  0  0
   16.2748  138.1855   -6.2116 C   0  0  0  0  0  0  0  0  0  0  0  0
   19.9889  136.5968   -2.1456 C   0  0  0  0  0  0  0  0  0  0  0  0
   18.8850  137.0259   -1.7141 O   0  0  0  0  0  0  0  0  0  0  0  0
   14.9877  133.2105   -6.8027 H   0  0  0  0  0  0  0  0  0  0  0  0
   13.4961  134.9773   -6.5540 H   0  0  0  0  0  0  0  0  0  0  0  0
   13.8634  134.9078   -8.1436 H   0  0  0  0  0  0  0  0  0  0  0  0
   14.4788  137.1671   -7.8875 H   0  0  0  0  0  0  0  0  0  0  0  0
   14.9466  135.8061   -4.4883 H   0  0  0  0  0  0  0  0  0  0  0  0
   16.5255  136.2227   -4.4753 H   0  0  0  0  0  0  0  0  0  0  0  0
   17.1299  134.4714   -5.7893 H   0  0  0  0  0  0  0  0  0  0  0  0
   15.1582  131.8453   -2.7843 H   0  0  0  0  0  0  0  0  0  0  0  0
   16.2644  131.3151   -0.7389 H   0  0  0  0  0  0  0  0  0  0  0  0
   18.1136  131.6218    0.7950 H   0  0  0  0  0  0  0  0  0  0  0  0
   20.1682  132.6950    1.3790 H   0  0  0  0  0  0  0  0  0  0  0  0
   21.1293  134.3251   -0.0760 H   0  0  0  0  0  0  0  0  0  0  0  0
   18.1563  134.5622   -3.7316 H   0  0  0  0  0  0  0  0  0  0  0  0
   21.5494  134.8638   -3.8909 H   0  0  0  0  0  0  0  0  0  0  0  0
   22.0853  134.3622   -2.4321 H   0  0  0  0  0  0  0  0  0  0  0  0
   22.7632  136.7180   -3.5406 H   0  0  0  0  0  0  0  0  0  0  0  0
   22.9433  136.3793   -1.9533 H   0  0  0  0  0  0  0  0  0  0  0  0
   21.4093  137.8990   -1.4976 H   0  0  0  0  0  0  0  0  0  0  0  0
   21.8164  139.0444   -3.4384 H   0  0  0  0  0  0  0  0  0  0  0  0
   20.2240  139.0894   -3.0793 H   0  0  0  0  0  0  0  0  0  0  0  0
   21.1438  137.1958   -4.9347 H   0  0  0  0  0  0  0  0  0  0  0  0
   20.9582  138.7478   -5.4075 H   0  0  0  0  0  0  0  0  0  0  0  0
   18.6335  138.5317   -4.5272 H   0  0  0  0  0  0  0  0  0  0  0  0
   18.9040  136.9219   -4.5728 H   0  0  0  0  0  0  0  0  0  0  0  0
   20.5734  137.2418   -7.4288 H   0  0  0  0  0  0  0  0  0  0  0  0
   16.8826  137.9243   -8.9080 H   0  0  0  0  0  0  0  0  0  0  0  0
   15.7200  138.8710   -6.6832 H   0  0  0  0  0  0  0  0  0  0  0  0
   16.4706  138.4974   -5.2819 H   0  0  0  0  0  0  0  0  0  0  0  0
  1  2  3  0  0  0  0
  2  3  1  0  0  0  0
  3  4  1  0  0  0  0
  4  5  1  0  0  0  0
  5  6  2  0  0  0  0
  6  7  1  0  0  0  0
  7  8  1  0  0  0  0
  8  9  1  0  0  0  0
  9 10  1  0  0  0  0
 10 11  2  0  0  0  0
 11 12  1  0  0  0  0
 12 13  2  0  0  0  0
 13 14  1  0  0  0  0
 14 15  2  0  0  0  0
 15 16  1  0  0  0  0
 16 17  2  0  0  0  0
 17 18  1  0  0  0  0
 18 19  2  0  0  0  0
 17 20  1  0  0  0  0
 20 21  1  0  0  0  0
 21 22  1  0  0  0  0
 22 23  1  0  0  0  0
 23 24  1  0  0  0  0
 24 25  1  0  0  0  0
 25 26  1  0  0  0  0
 26 27  1  0  0  0  0
 27 28  2  0  0  0  0
 28 29  1  0  0  0  0
 29 30  2  0  0  0  0
 30 31  1  0  0  0  0
 31 32  1  0  0  0  0
 23 33  1  0  0  0  0
 33 34  2  0  0  0  0
  8  3  1  0  0  0  0
 19 10  1  0  0  0  0
 33 20  1  0  0  0  0
 32  6  1  0  0  0  0
 18 13  1  0  0  0  0
 31 27  1  0  0  0  0
  3 35  1  0  0  0  0
  4 36  1  0  0  0  0
  4 37  1  0  0  0  0
  5 38  1  0  0  0  0
  7 39  1  0  0  0  0
  7 40  1  0  0  0  0
  8 41  1  0  0  0  0
 11 42  1  0  0  0  0
 12 43  1  0  0  0  0
 14 44  1  0  0  0  0
 15 45  1  0  0  0  0
 16 46  1  0  0  0  0
 19 47  1  0  0  0  0
 21 48  1  0  0  0  0
 21 49  1  0  0  0  0
 22 50  1  0  0  0  0
 22 51  1  0  0  0  0
 23 52  1  0  0  0  0
 24 53  1  0  0  0  0
 24 54  1  0  0  0  0
 25 55  1  0  0  0  0
 25 56  1  0  0  0  0
 26 57  1  0  0  0  0
 26 58  1  0  0  0  0
 28 59  1  0  0  0  0
 30 60  1  0  0  0  0
 32 61  1  0  0  0  0
 32 62  1  0  0  0  0
M  CHG  1  24   1
M  END
>  <docking-score>
-19.51

$$$$
1S63_778_1
foFlexX   03192112163D 1   1.00000     0.00000     0
FlexX 4.5.0 fol007
 50 53  0  0  0  0            999 V2000
   18.8229  133.1980    3.3197 N   0  0  0  0  0  0  0  0  0  0  0  0
   18.9412  133.3607    2.1801 C   0  0  0  0  0  0  0  0  0  0  0  0
   19.0953  133.5722    0.6829 C   0  0  0  0  0  0  0  0  0  0  0  0
   18.1441  134.3224   -0.0015 C   0  0  0  0  0  0  0  0  0  0  0  0
   18.2725  134.5248   -1.3715 C   0  0  0  0  0  0  0  0  0  0  0  0
   19.3580  133.9691   -2.0408 C   0  0  0  0  0  0  0  0  0  0  0  0
   19.5080  134.1791   -3.5233 C   0  0  0  0  0  0  0  0  0  0  0  0
   20.7690  134.8691   -3.8329 N   0  0  0  0  0  0  0  0  0  0  0  0
   21.9621  134.2582   -4.0876 C   0  0  0  0  0  0  0  0  0  0  0  0
   22.8519  135.1975   -4.3220 N   0  0  0  0  0  0  0  0  0  0  0  0
   22.2441  136.4170   -4.2209 C   0  0  0  0  0  0  0  0  0  0  0  0
   20.9300  136.2185   -3.9122 C   0  0  0  0  0  0  0  0  0  0  0  0
   19.8761  137.2802   -3.7083 C   0  0  0  0  0  0  0  0  0  0  0  0
   19.1904  137.6274   -4.9607 N   0  3  2  0  0  0  0  0  0  0  0  0
   17.8785  136.9548   -5.0613 C   0  0  0  0  0  0  0  0  0  0  0  0
   17.6558  136.1309   -6.3292 C   0  0  0  0  0  0  0  0  0  0  0  0
   18.2067  136.7702   -7.5333 N   0  0  0  0  0  0  0  0  0  0  0  0
   17.5131  136.7335   -8.7493 C   0  0  0  0  0  0  0  0  0  0  0  0
   17.7365  135.6820   -9.6324 C   0  0  0  0  0  0  0  0  0  0  0  0
   17.0436  135.6498  -10.8382 C   0  0  0  0  0  0  0  0  0  0  0  0
   16.1367  136.6519  -11.1659 C   0  0  0  0  0  0  0  0  0  0  0  0
   15.9283  137.6940  -10.2681 C   0  0  0  0  0  0  0  0  0  0  0  0
   14.7715  138.9859  -10.6686 Cl  0  0  0  0  0  0  0  0  0  0  0  0
   16.6103  137.7459   -9.0570 C   0  0  0  0  0  0  0  0  0  0  0  0
   19.4464  137.4147   -7.4203 C   0  0  0  0  0  0  0  0  0  0  0  0
   19.9558  137.9568   -8.3898 O   0  0  0  0  0  0  0  0  0  0  0  0
   20.1425  137.4266   -6.0657 C   0  0  0  0  0  0  0  0  0  0  0  0
   20.3105  133.2180   -1.3599 C   0  0  0  0  0  0  0  0  0  0  0  0
   20.1797  133.0176    0.0108 C   0  0  0  0  0  0  0  0  0  0  0  0
   17.3683  134.7160    0.4916 H   0  0  0  0  0  0  0  0  0  0  0  0
   17.5927  135.0632   -1.8694 H   0  0  0  0  0  0  0  0  0  0  0  0
   18.7431  134.7317   -3.8544 H   0  0  0  0  0  0  0  0  0  0  0  0
   19.5004  133.2905   -3.9819 H   0  0  0  0  0  0  0  0  0  0  0  0
   22.1299  133.2724   -4.0948 H   0  0  0  0  0  0  0  0  0  0  0  0
   22.6870  137.3040   -4.3511 H   0  0  0  0  0  0  0  0  0  0  0  0
   20.3128  138.1017   -3.3416 H   0  0  0  0  0  0  0  0  0  0  0  0
   19.2000  136.9418   -3.0538 H   0  0  0  0  0  0  0  0  0  0  0  0
   19.0044  138.6091   -4.9204 H   0  0  0  0  0  0  0  0  0  0  0  0
   17.1684  137.6578   -5.0223 H   0  0  0  0  0  0  0  0  0  0  0  0
   17.7853  136.3428   -4.2760 H   0  0  0  0  0  0  0  0  0  0  0  0
   18.0951  135.2403   -6.2118 H   0  0  0  0  0  0  0  0  0  0  0  0
   16.6724  136.0032   -6.4577 H   0  0  0  0  0  0  0  0  0  0  0  0
   18.3872  134.9581   -9.4031 H   0  0  0  0  0  0  0  0  0  0  0  0
   17.1996  134.8967  -11.4773 H   0  0  0  0  0  0  0  0  0  0  0  0
   15.6417  136.6238  -12.0343 H   0  0  0  0  0  0  0  0  0  0  0  0
   16.4542  138.4989   -8.4178 H   0  0  0  0  0  0  0  0  0  0  0  0
   20.6100  136.5523   -5.9347 H   0  0  0  0  0  0  0  0  0  0  0  0
   20.8131  138.1683   -6.0533 H   0  0  0  0  0  0  0  0  0  0  0  0
   21.0858  132.8238   -1.8533 H   0  0  0  0  0  0  0  0  0  0  0  0
   20.8598  132.4794    0.5087 H   0  0  0  0  0  0  0  0  0  0  0  0
  1  2  3  0  0  0  0
  2  3  1  0  0  0  0
  3  4  2  0  0  0  0
  4  5  1  0  0  0  0
  5  6  2  0  0  0  0
  6  7  1  0  0  0  0
  7  8  1  0  0  0  0
  8  9  1  0  0  0  0
  9 10  2  0  0  0  0
 10 11  1  0  0  0  0
 11 12  2  0  0  0  0
 12 13  1  0  0  0  0
 13 14  1  0  0  0  0
 14 15  1  0  0  0  0
 15 16  1  0  0  0  0
 16 17  1  0  0  0  0
 17 18  1  0  0  0  0
 18 19  2  0  0  0  0
 19 20  1  0  0  0  0
 20 21  2  0  0  0  0
 21 22  1  0  0  0  0
 22 23  1  0  0  0  0
 22 24  2  0  0  0  0
 17 25  1  0  0  0  0
 25 26  2  0  0  0  0
 25 27  1  0  0  0  0
  6 28  1  0  0  0  0
 28 29  2  0  0  0  0
 29  3  1  0  0  0  0
 12  8  1  0  0  0  0
 27 14  1  0  0  0  0
 24 18  1  0  0  0  0
  4 30  1  0  0  0  0
  5 31  1  0  0  0  0
  7 32  1  0  0  0  0
  7 33  1  0  0  0  0
  9 34  1  0  0  0  0
 11 35  1  0  0  0  0
 13 36  1  0  0  0  0
 13 37  1  0  0  0  0
 14 38  1  0  0  0  0
 15 39  1  0  0  0  0
 15 40  1  0  0  0  0
 16 41  1  0  0  0  0
 16 42  1  0  0  0  0
 19 43  1  0  0  0  0
 20 44  1  0  0  0  0
 21 45  1  0  0  0  0
 24 46  1  0  0  0  0
 27 47  1  0  0  0  0
 27 48  1  0  0  0  0
 28 49  1  0  0  0  0
 29 50  1  0  0  0  0
M  CHG  1  14   1
M  END
>  <docking-score>
-25.44

$$$$
1S63_778_2
foFlexX   03192112163D 1   1.00000     0.00000     0
FlexX 4.5.0 fol007
 50 53  0  0  0  0            999 V2000
   19.0735  133.1408    3.8052 N   0  0  0  0  0  0  0  0  0  0  0  0
   19.1655  133.1837    2.6527 C   0  0  0  0  0  0  0  0  0  0  0  0
   19.2777  133.2357    1.2187 C   0  0  0  0  0  0  0  0  0  0  0  0
   18.6952  134.2929    0.5268 C   0  0  0  0  0  0  0  0  0  0  0  0
   18.7962  134.3567   -0.8589 C   0  0  0  0  0  0  0  0  0  0  0  0
   19.4830  133.3543   -1.5360 C   0  0  0  0  0  0  0  0  0  0  0  0
   19.5996  133.4109   -3.0505 C   0  0  0  0  0  0  0  0  0  0  0  0
   20.8002  134.1471   -3.4579 N   0  0  0  0  0  0  0  0  0  0  0  0
   22.0307  133.5968   -3.6694 C   0  0  0  0  0  0  0  0  0  0  0  0
   22.8476  134.5646   -4.0227 N   0  0  0  0  0  0  0  0  0  0  0  0
   22.1553  135.7424   -4.0420 C   0  0  0  0  0  0  0  0  0  0  0  0
   20.8630  135.4876   -3.6864 C   0  0  0  0  0  0  0  0  0  0  0  0
   19.7308  136.4957   -3.5765 C   0  0  0  0  0  0  0  0  0  0  0  0
   18.9984  136.6561   -4.8577 N   0  3  2  0  0  0  0  0  0  0  0  0
   18.4514  135.3672   -5.3074 C   0  0  0  0  0  0  0  0  0  0  0  0
   17.5642  135.6157   -6.5210 C   0  0  0  0  0  0  0  0  0  0  0  0
   18.2499  136.4021   -7.5575 N   0  0  0  0  0  0  0  0  0  0  0  0
   17.7385  136.3813   -8.8584 C   0  0  0  0  0  0  0  0  0  0  0  0
   18.1851  135.4140   -9.7531 C   0  0  0  0  0  0  0  0  0  0  0  0
   17.6717  135.3970  -11.0459 C   0  0  0  0  0  0  0  0  0  0  0  0
   16.7234  136.3312  -11.4484 C   0  0  0  0  0  0  0  0  0  0  0  0
   16.2905  137.2895  -10.5375 C   0  0  0  0  0  0  0  0  0  0  0  0
   15.0771  138.4936  -11.0329 Cl  0  0  0  0  0  0  0  0  0  0  0  0
   16.7905  137.3248   -9.2400 C   0  0  0  0  0  0  0  0  0  0  0  0
   19.3940  137.1578   -7.2635 C   0  0  0  0  0  0  0  0  0  0  0  0
   19.9454  137.8483   -8.1025 O   0  0  0  0  0  0  0  0  0  0  0  0
   19.9720  137.1217   -5.8537 C   0  0  0  0  0  0  0  0  0  0  0  0
   20.0661  132.2955   -0.8476 C   0  0  0  0  0  0  0  0  0  0  0  0
   19.9639  132.2347    0.5387 C   0  0  0  0  0  0  0  0  0  0  0  0
   18.2039  135.0069    1.0257 H   0  0  0  0  0  0  0  0  0  0  0  0
   18.3802  135.1140   -1.3623 H   0  0  0  0  0  0  0  0  0  0  0  0
   18.7928  133.8690   -3.4236 H   0  0  0  0  0  0  0  0  0  0  0  0
   19.6498  132.4790   -3.4097 H   0  0  0  0  0  0  0  0  0  0  0  0
   22.2686  132.6303   -3.5730 H   0  0  0  0  0  0  0  0  0  0  0  0
   22.5318  136.6386   -4.2768 H   0  0  0  0  0  0  0  0  0  0  0  0
   20.1122  137.3809   -3.3102 H   0  0  0  0  0  0  0  0  0  0  0  0
   19.0892  136.1846   -2.8753 H   0  0  0  0  0  0  0  0  0  0  0  0
   18.2633  137.3260   -4.7538 H   0  0  0  0  0  0  0  0  0  0  0  0
   17.9114  134.9554   -4.5734 H   0  0  0  0  0  0  0  0  0  0  0  0
   19.1992  134.7519   -5.5566 H   0  0  0  0  0  0  0  0  0  0  0  0
   17.2960  134.7343   -6.9099 H   0  0  0  0  0  0  0  0  0  0  0  0
   16.7477  136.1126   -6.2269 H   0  0  0  0  0  0  0  0  0  0  0  0
   18.8668  134.7393   -9.4704 H   0  0  0  0  0  0  0  0  0  0  0  0
   17.9885  134.7044  -11.6939 H   0  0  0  0  0  0  0  0  0  0  0  0
   16.3580  136.3145  -12.3791 H   0  0  0  0  0  0  0  0  0  0  0  0
   16.4735  138.0173   -8.5920 H   0  0  0  0  0  0  0  0  0  0  0  0
   20.7588  136.5046   -5.8456 H   0  0  0  0  0  0  0  0  0  0  0  0
   20.2688  138.0437   -5.6052 H   0  0  0  0  0  0  0  0  0  0  0  0
   20.5566  131.5813   -1.3468 H   0  0  0  0  0  0  0  0  0  0  0  0
   20.3802  131.4775    1.0421 H   0  0  0  0  0  0  0  0  0  0  0  0
  1  2  3  0  0  0  0
  2  3  1  0  0  0  0
  3  4  2  0  0  0  0
  4  5  1  0  0  0  0
  5  6  2  0  0  0  0
  6  7  1  0  0  0  0
  7  8  1  0  0  0  0
  8  9  1  0  0  0  0
  9 10  2  0  0  0  0
 10 11  1  0  0  0  0
 11 12  2  0  0  0  0
 12 13  1  0  0  0  0
 13 14  1  0  0  0  0
 14 15  1  0  0  0  0
 15 16  1  0  0  0  0
 16 17  1  0  0  0  0
 17 18  1  0  0  0  0
 18 19  2  0  0  0  0
 19 20  1  0  0  0  0
 20 21  2  0  0  0  0
 21 22  1  0  0  0  0
 22 23  1  0  0  0  0
 22 24  2  0  0  0  0
 17 25  1  0  0  0  0
 25 26  2  0  0  0  0
 25 27  1  0  0  0  0
  6 28  1  0  0  0  0
 28 29  2  0  0  0  0
 29  3  1  0  0  0  0
 12  8  1  0  0  0  0
 27 14  1  0  0  0  0
 24 18  1  0  0  0  0
  4 30  1  0  0  0  0
  5 31  1  0  0  0  0
  7 32  1  0  0  0  0
  7 33  1  0  0  0  0
  9 34  1  0  0  0  0
 11 35  1  0  0  0  0
 13 36  1  0  0  0  0
 13 37  1  0  0  0  0
 14 38  1  0  0  0  0
 15 39  1  0  0  0  0
 15 40  1  0  0  0  0
 16 41  1  0  0  0  0
 16 42  1  0  0  0  0
 19 43  1  0  0  0  0
 20 44  1  0  0  0  0
 21 45  1  0  0  0  0
 24 46  1  0  0  0  0
 27 47  1  0  0  0  0
 27 48  1  0  0  0  0
 28 49  1  0  0  0  0
 29 50  1  0  0  0  0
M  CHG  1  14   1
M  END
>  <docking-score>
-25.24

$$$$
1S63_778_3
foFlexX   03192112163D 1   1.00000     0.00000     0
FlexX 4.5.0 fol007
 50 53  0  0  0  0            999 V2000
   19.1799  133.1701    3.8852 N   0  0  0  0  0  0  0  0  0  0  0  0
   19.2729  133.1777    2.7320 C   0  0  0  0  0  0  0  0  0  0  0  0
   19.3877  133.1849    1.2972 C   0  0  0  0  0  0  0  0  0  0  0  0
   18.3319  133.6686    0.5309 C   0  0  0  0  0  0  0  0  0  0  0  0
   18.4290  133.6823   -0.8564 C   0  0  0  0  0  0  0  0  0  0  0  0
   19.5890  133.2080   -1.4602 C   0  0  0  0  0  0  0  0  0  0  0  0
   19.7076  133.2159   -2.9756 C   0  0  0  0  0  0  0  0  0  0  0  0
   20.8423  134.0365   -3.4096 N   0  0  0  0  0  0  0  0  0  0  0  0
   22.1166  133.5866   -3.5976 C   0  0  0  0  0  0  0  0  0  0  0  0
   22.8489  134.6068   -3.9871 N   0  0  0  0  0  0  0  0  0  0  0  0
   22.0579  135.7188   -4.0533 C   0  0  0  0  0  0  0  0  0  0  0  0
   20.7905  135.3676   -3.6900 C   0  0  0  0  0  0  0  0  0  0  0  0
   19.5753  136.2777   -3.6212 C   0  0  0  0  0  0  0  0  0  0  0  0
   18.8380  136.3248   -4.9088 N   0  3  2  0  0  0  0  0  0  0  0  0
   18.4062  134.9771   -5.3087 C   0  0  0  0  0  0  0  0  0  0  0  0
   17.5068  135.1010   -6.5324 C   0  0  0  0  0  0  0  0  0  0  0  0
   18.1272  135.9028   -7.5978 N   0  0  0  0  0  0  0  0  0  0  0  0
   17.6258  135.7877   -8.8976 C   0  0  0  0  0  0  0  0  0  0  0  0
   18.1583  134.8287   -9.7533 C   0  0  0  0  0  0  0  0  0  0  0  0
   17.6546  134.7174  -11.0451 C   0  0  0  0  0  0  0  0  0  0  0  0
   16.6313  135.5501  -11.4852 C   0  0  0  0  0  0  0  0  0  0  0  0
   16.1131  136.5020  -10.6130 C   0  0  0  0  0  0  0  0  0  0  0  0
   14.8030  137.5769  -11.1567 Cl  0  0  0  0  0  0  0  0  0  0  0  0
   16.6020  136.6305   -9.3171 C   0  0  0  0  0  0  0  0  0  0  0  0
   19.2006  136.7652   -7.3317 C   0  0  0  0  0  0  0  0  0  0  0  0
   19.6946  137.4677   -8.1962 O   0  0  0  0  0  0  0  0  0  0  0  0
   19.7727  136.8336   -5.9207 C   0  0  0  0  0  0  0  0  0  0  0  0
   20.6462  132.7232   -0.6972 C   0  0  0  0  0  0  0  0  0  0  0  0
   20.5464  132.7112    0.6905 C   0  0  0  0  0  0  0  0  0  0  0  0
   17.5034  134.0063    0.9776 H   0  0  0  0  0  0  0  0  0  0  0  0
   17.6741  134.0289   -1.4132 H   0  0  0  0  0  0  0  0  0  0  0  0
   18.8661  133.5879   -3.3675 H   0  0  0  0  0  0  0  0  0  0  0  0
   19.8395  132.2785   -3.2981 H   0  0  0  0  0  0  0  0  0  0  0  0
   22.4364  132.6487   -3.4633 H   0  0  0  0  0  0  0  0  0  0  0  0
   22.3569  136.6344   -4.3223 H   0  0  0  0  0  0  0  0  0  0  0  0
   19.8777  137.2022   -3.3890 H   0  0  0  0  0  0  0  0  0  0  0  0
   18.9595  135.9399   -2.9094 H   0  0  0  0  0  0  0  0  0  0  0  0
   18.0474  136.9323   -4.8322 H   0  0  0  0  0  0  0  0  0  0  0  0
   17.9000  134.5489   -4.5600 H   0  0  0  0  0  0  0  0  0  0  0  0
   19.2054  134.4193   -5.5326 H   0  0  0  0  0  0  0  0  0  0  0  0
   17.3173  134.1854   -6.8871 H   0  0  0  0  0  0  0  0  0  0  0  0
   16.6491  135.5367   -6.2591 H   0  0  0  0  0  0  0  0  0  0  0  0
   18.8942  134.2266   -9.4434 H   0  0  0  0  0  0  0  0  0  0  0  0
   18.0329  134.0301  -11.6652 H   0  0  0  0  0  0  0  0  0  0  0  0
   16.2733  135.4659  -12.4151 H   0  0  0  0  0  0  0  0  0  0  0  0
   16.2234  137.3177   -8.6970 H   0  0  0  0  0  0  0  0  0  0  0  0
   20.6097  136.2875   -5.8874 H   0  0  0  0  0  0  0  0  0  0  0  0
   19.9878  137.7867   -5.7079 H   0  0  0  0  0  0  0  0  0  0  0  0
   21.4742  132.3847   -1.1441 H   0  0  0  0  0  0  0  0  0  0  0  0
   21.3015  132.3648    1.2472 H   0  0  0  0  0  0  0  0  0  0  0  0
  1  2  3  0  0  0  0
  2  3  1  0  0  0  0
  3  4  2  0  0  0  0
  4  5  1  0  0  0  0
  5  6  2  0  0  0  0
  6  7  1  0  0  0  0
  7  8  1  0  0  0  0
  8  9  1  0  0  0  0
  9 10  2  0  0  0  0
 10 11  1  0  0  0  0
 11 12  2  0  0  0  0
 12 13  1  0  0  0  0
 13 14  1  0  0  0  0
 14 15  1  0  0  0  0
 15 16  1  0  0  0  0
 16 17  1  0  0  0  0
 17 18  1  0  0  0  0
 18 19  2  0  0  0  0
 19 20  1  0  0  0  0
 20 21  2  0  0  0  0
 21 22  1  0  0  0  0
 22 23  1  0  0  0  0
 22 24  2  0  0  0  0
 17 25  1  0  0  0  0
 25 26  2  0  0  0  0
 25 27  1  0  0  0  0
  6 28  1  0  0  0  0
 28 29  2  0  0  0  0
 29  3  1  0  0  0  0
 12  8  1  0  0  0  0
 27 14  1  0  0  0  0
 24 18  1  0  0  0  0
  4 30  1  0  0  0  0
  5 31  1  0  0  0  0
  7 32  1  0  0  0  0
  7 33  1  0  0  0  0
  9 34  1  0  0  0  0
 11 35  1  0  0  0  0
 13 36  1  0  0  0  0
 13 37  1  0  0  0  0
 14 38  1  0  0  0  0
 15 39  1  0  0  0  0
 15 40  1  0  0  0  0
 16 41  1  0  0  0  0
 16 42  1  0  0  0  0
 19 43  1  0  0  0  0
 20 44  1  0  0  0  0
 21 45  1  0  0  0  0
 24 46  1  0  0  0  0
 27 47  1  0  0  0  0
 27 48  1  0  0  0  0
 28 49  1  0  0  0  0
 29 50  1  0  0  0  0
M  CHG  1  14   1
M  END
>  <docking-score>
-25.23

$$$$
3E37_ED5_1
foFlexX   03192112163D 1   1.00000     0.00000     0
FlexX 4.5.0 fol007
 85 88  0  0  0  0            999 V2000
   20.9806  136.9404   -4.6467 C   0  0  0  0  0  0  0  0  0  0  0  0
   20.7342  138.3693   -5.1028 C   0  0  0  0  0  0  0  0  0  0  0  0
   21.3577  139.4002   -4.4072 C   0  0  0  0  0  0  0  0  0  0  0  0
   21.1481  140.7163   -4.8048 C   0  0  0  0  0  0  0  0  0  0  0  0
   20.3213  140.9916   -5.8890 C   0  0  0  0  0  0  0  0  0  0  0  0
   19.6968  139.9620   -6.5856 C   0  0  0  0  0  0  0  0  0  0  0  0
   19.9064  138.6453   -6.1873 C   0  0  0  0  0  0  0  0  0  0  0  0
   19.1029  137.3469   -7.0865 S   0  0  0  0  0  0  0  0  0  0  0  0
   18.4858  137.9270   -8.3296 O   0  0  0  0  0  0  0  0  0  0  0  0
   20.1343  136.3242   -7.4761 O   0  0  0  0  0  0  0  0  0  0  0  0
   17.8545  136.6330   -6.0791 N   0  0  0  0  0  0  0  0  0  0  0  0
   18.3756  135.4698   -5.3341 C   0  0  0  0  0  0  0  0  0  0  0  0
   17.7906  134.1418   -5.8436 C   0  0  0  0  0  0  0  0  0  0  0  0
   17.7203  133.1660   -4.7481 N   0  0  0  0  0  0  0  0  0  0  0  0
   18.9034  132.4123   -4.3201 C   0  0  0  0  0  0  0  0  0  0  0  0
   19.6836  133.1997   -3.3088 C   0  0  0  0  0  0  0  0  0  0  0  0
   20.9753  133.6162   -3.4451 C   0  0  0  0  0  0  0  0  0  0  0  0
   21.2954  134.2963   -2.3076 N   0  0  0  0  0  0  0  0  0  0  0  0
   20.2492  134.2971   -1.5095 C   0  0  0  0  0  0  0  0  0  0  0  0
   19.2243  133.6286   -2.1035 N   0  0  0  0  0  0  0  0  0  0  0  0
   17.8815  133.4035   -1.5480 C   0  0  0  0  0  0  0  0  0  0  0  0
   16.4691  132.8633   -4.1973 C   0  0  0  0  0  0  0  0  0  0  0  0
   16.3673  131.8494   -3.2501 C   0  0  0  0  0  0  0  0  0  0  0  0
   15.1305  131.5379   -2.6954 C   0  0  0  0  0  0  0  0  0  0  0  0
   14.0070  132.2509   -3.0989 C   0  0  0  0  0  0  0  0  0  0  0  0
   12.7219  131.9390   -2.5313 C   0  0  0  0  0  0  0  0  0  0  0  0
   11.6890  131.6897   -2.0734 N   0  0  0  0  0  0  0  0  0  0  0  0
   14.1038  133.2659   -4.0454 C   0  0  0  0  0  0  0  0  0  0  0  0
   15.3425  133.5742   -4.5983 C   0  0  0  0  0  0  0  0  0  0  0  0
   17.0531  137.6231   -5.3097 C   0  0  0  0  0  0  0  0  0  0  0  0
   16.4803  137.1479   -3.9436 C   0  0  0  0  0  0  0  0  0  0  0  0
   15.0992  136.5314   -4.1120 C   0  0  0  0  0  0  0  0  0  0  0  0
   14.6928  135.8881   -2.7954 C   0  0  0  0  0  0  0  0  0  0  0  0
   15.2969  136.6699   -1.7128 N   0  0  0  0  0  0  0  0  0  0  0  0
   15.7781  136.0655   -0.5414 C   0  0  0  0  0  0  0  0  0  0  0  0
   16.2279  134.8878   -0.5795 O   0  0  0  0  0  0  0  0  0  0  0  0
   15.7625  136.7818    0.6670 O   0  0  0  0  0  0  0  0  0  0  0  0
   16.6240  136.5709    1.7951 C   0  0  0  0  0  0  0  0  0  0  0  0
   17.9604  137.2591    1.4789 C   0  0  0  0  0  0  0  0  0  0  0  0
   16.0247  137.2073    3.0638 C   0  0  0  0  0  0  0  0  0  0  0  0
   16.8777  135.0663    2.0083 C   0  0  0  0  0  0  0  0  0  0  0  0
   15.3526  138.1070   -1.9904 C   0  0  0  0  0  0  0  0  0  0  0  0
   16.4671  138.3360   -2.9962 C   0  0  0  0  0  0  0  0  0  0  0  0
   20.4721  136.3107   -5.2339 H   0  0  0  0  0  0  0  0  0  0  0  0
   21.9577  136.7356   -4.7055 H   0  0  0  0  0  0  0  0  0  0  0  0
   20.6743  136.8349   -3.7006 H   0  0  0  0  0  0  0  0  0  0  0  0
   21.9511  139.1968   -3.6285 H   0  0  0  0  0  0  0  0  0  0  0  0
   21.5917  141.4644   -4.3114 H   0  0  0  0  0  0  0  0  0  0  0  0
   20.1742  141.9398   -6.1707 H   0  0  0  0  0  0  0  0  0  0  0  0
   19.1036  140.1660   -7.3643 H   0  0  0  0  0  0  0  0  0  0  0  0
   18.1407  135.5752   -4.3678 H   0  0  0  0  0  0  0  0  0  0  0  0
   19.3702  135.4428   -5.4343 H   0  0  0  0  0  0  0  0  0  0  0  0
   18.3746  133.7808   -6.5706 H   0  0  0  0  0  0  0  0  0  0  0  0
   16.8713  134.3019   -6.2030 H   0  0  0  0  0  0  0  0  0  0  0  0
   19.4830  132.2290   -5.1141 H   0  0  0  0  0  0  0  0  0  0  0  0
   18.6135  131.5467   -3.9120 H   0  0  0  0  0  0  0  0  0  0  0  0
   21.5735  133.4537   -4.2298 H   0  0  0  0  0  0  0  0  0  0  0  0
   20.2132  134.7234   -0.6057 H   0  0  0  0  0  0  0  0  0  0  0  0
   17.3358  132.8754   -2.1986 H   0  0  0  0  0  0  0  0  0  0  0  0
   17.9568  132.8980   -0.6884 H   0  0  0  0  0  0  0  0  0  0  0  0
   17.4388  134.2841   -1.3791 H   0  0  0  0  0  0  0  0  0  0  0  0
   17.1832  131.3447   -2.9682 H   0  0  0  0  0  0  0  0  0  0  0  0
   15.0502  130.8099   -2.0145 H   0  0  0  0  0  0  0  0  0  0  0  0
   13.2877  133.7709   -4.3266 H   0  0  0  0  0  0  0  0  0  0  0  0
   15.4226  134.3020   -5.2794 H   0  0  0  0  0  0  0  0  0  0  0  0
   16.2811  137.8989   -5.8824 H   0  0  0  0  0  0  0  0  0  0  0  0
   17.6376  138.4153   -5.1341 H   0  0  0  0  0  0  0  0  0  0  0  0
   17.0932  136.4522   -3.5690 H   0  0  0  0  0  0  0  0  0  0  0  0
   15.1250  135.8380   -4.8322 H   0  0  0  0  0  0  0  0  0  0  0  0
   14.4402  137.2424   -4.3574 H   0  0  0  0  0  0  0  0  0  0  0  0
   13.6968  135.8951   -2.7060 H   0  0  0  0  0  0  0  0  0  0  0  0
   15.0239  134.9451   -2.7605 H   0  0  0  0  0  0  0  0  0  0  0  0
   17.8057  138.2360    1.3316 H   0  0  0  0  0  0  0  0  0  0  0  0
   18.5899  137.1332    2.2457 H   0  0  0  0  0  0  0  0  0  0  0  0
   18.3558  136.8561    0.6535 H   0  0  0  0  0  0  0  0  0  0  0  0
   15.1343  136.7943    3.2552 H   0  0  0  0  0  0  0  0  0  0  0  0
   16.6384  137.0498    3.8375 H   0  0  0  0  0  0  0  0  0  0  0  0
   15.9124  138.1908    2.9222 H   0  0  0  0  0  0  0  0  0  0  0  0
   17.3113  134.6826    1.1930 H   0  0  0  0  0  0  0  0  0  0  0  0
   17.4789  134.9382    2.7971 H   0  0  0  0  0  0  0  0  0  0  0  0
   16.0078  134.6016    2.1732 H   0  0  0  0  0  0  0  0  0  0  0  0
   15.5447  138.6101   -1.1477 H   0  0  0  0  0  0  0  0  0  0  0  0
   14.4807  138.4151   -2.3711 H   0  0  0  0  0  0  0  0  0  0  0  0
   16.2974  139.1784   -3.5077 H   0  0  0  0  0  0  0  0  0  0  0  0
   17.3452  138.4047   -2.5227 H   0  0  0  0  0  0  0  0  0  0  0  0
  1  2  1  0  0  0  0
  2  3  2  0  0  0  0
  3  4  1  0  0  0  0
  4  5  2  0  0  0  0
  5  6  1  0  0  0  0
  6  7  2  0  0  0  0
  7  8  1  0  0  0  0
  8  9  2  0  0  0  0
  8 10  2  0  0  0  0
  8 11  1  0  0  0  0
 11 12  1  0  0  0  0
 12 13  1  0  0  0  0
 13 14  1  0  0  0  0
 14 15  1  0  0  0  0
 15 16  1  0  0  0  0
 16 17  2  0  0  0  0
 17 18  1  0  0  0  0
 18 19  2  0  0  0  0
 19 20  1  0  0  0  0
 20 21  1  0  0  0  0
 14 22  1  0  0  0  0
 22 23  2  0  0  0  0
 23 24  1  0  0  0  0
 24 25  2  0  0  0  0
 25 26  1  0  0  0  0
 26 27  3  0  0  0  0
 25 28  1  0  0  0  0
 28 29  2  0  0  0  0
 11 30  1  0  0  0  0
 30 31  1  0  0  0  0
 31 32  1  0  0  0  0
 32 33  1  0  0  0  0
 33 34  1  0  0  0  0
 34 35  1  0  0  0  0
 35 36  2  0  0  0  0
 35 37  1  0  0  0  0
 37 38  1  0  0  0  0
 38 39  1  0  0  0  0
 38 40  1  0  0  0  0
 38 41  1  0  0  0  0
 34 42  1  0  0  0  0
 42 43  1  0  0  0  0
  7  2  1  0  0  0  0
 20 16  1  0  0  0  0
 29 22  1  0  0  0  0
 43 31  1  0  0  0  0
  1 44  1  0  0  0  0
  1 45  1  0  0  0  0
  1 46  1  0  0  0  0
  3 47  1  0  0  0  0
  4 48  1  0  0  0  0
  5 49  1  0  0  0  0
  6 50  1  0  0  0  0
 12 51  1  0  0  0  0
 12 52  1  0  0  0  0
 13 53  1  0  0  0  0
 13 54  1  0  0  0  0
 15 55  1  0  0  0  0
 15 56  1  0  0  0  0
 17 57  1  0  0  0  0
 19 58  1  0  0  0  0
 21 59  1  0  0  0  0
 21 60  1  0  0  0  0
 21 61  1  0  0  0  0
 23 62  1  0  0  0  0
 24 63  1  0  0  0  0
 28 64  1  0  0  0  0
 29 65  1  0  0  0  0
 30 66  1  0  0  0  0
 30 67  1  0  0  0  0
 31 68  1  0  0  0  0
 32 69  1  0  0  0  0
 32 70  1  0  0  0  0
 33 71  1  0  0  0  0
 33 72  1  0  0  0  0
 39 73  1  0  0  0  0
 39 74  1  0  0  0  0
 39 75  1  0  0  0  0
 40 76  1  0  0  0  0
 40 77  1  0  0  0  0
 40 78  1  0  0  0  0
 41 79  1  0  0  0  0
 41 80  1  0  0  0  0
 41 81  1  0  0  0  0
 42 82  1  0  0  0  0
 42 83  1  0  0  0  0
 43 84  1  0  0  0  0
 43 85  1  0  0  0  0
M  END
>  <docking-score>
-19.87

$$$$
3E37_ED5_2
foFlexX   03192112163D 1   1.00000     0.00000     0
FlexX 4.5.0 fol007
 85 88  0  0  0  0            999 V2000
   21.3551  137.2899   -4.7795 C   0  0  0  0  0  0  0  0  0  0  0  0
   20.4203  138.4864   -4.7095 C   0  0  0  0  0  0  0  0  0  0  0  0
   20.6479  139.4443   -3.7266 C   0  0  0  0  0  0  0  0  0  0  0  0
   19.8065  140.5483   -3.6417 C   0  0  0  0  0  0  0  0  0  0  0  0
   18.7492  140.6868   -4.5349 C   0  0  0  0  0  0  0  0  0  0  0  0
   18.5200  139.7299   -5.5182 C   0  0  0  0  0  0  0  0  0  0  0  0
   19.3618  138.6252   -5.6027 C   0  0  0  0  0  0  0  0  0  0  0  0
   19.0547  137.4165   -6.8617 S   0  0  0  0  0  0  0  0  0  0  0  0
   18.6570  138.1247   -8.1279 O   0  0  0  0  0  0  0  0  0  0  0  0
   20.3217  136.6434   -7.1032 O   0  0  0  0  0  0  0  0  0  0  0  0
   17.7568  136.3554   -6.3399 N   0  0  0  0  0  0  0  0  0  0  0  0
   18.2915  135.1601   -5.6579 C   0  0  0  0  0  0  0  0  0  0  0  0
   17.6070  133.8657   -6.1283 C   0  0  0  0  0  0  0  0  0  0  0  0
   17.5923  132.8770   -5.0422 N   0  0  0  0  0  0  0  0  0  0  0  0
   18.7752  132.0680   -4.7304 C   0  0  0  0  0  0  0  0  0  0  0  0
   19.6753  132.8065   -3.7839 C   0  0  0  0  0  0  0  0  0  0  0  0
   20.9665  133.1706   -4.0303 C   0  0  0  0  0  0  0  0  0  0  0  0
   21.4154  133.8193   -2.9183 N   0  0  0  0  0  0  0  0  0  0  0  0
   20.4452  133.8516   -2.0299 C   0  0  0  0  0  0  0  0  0  0  0  0
   19.3438  133.2357   -2.5375 N   0  0  0  0  0  0  0  0  0  0  0  0
   18.0472  133.0586   -1.8668 C   0  0  0  0  0  0  0  0  0  0  0  0
   16.3831  132.6185   -4.3853 C   0  0  0  0  0  0  0  0  0  0  0  0
   16.3223  131.5954   -3.4445 C   0  0  0  0  0  0  0  0  0  0  0  0
   15.1274  131.3275   -2.7850 C   0  0  0  0  0  0  0  0  0  0  0  0
   14.0043  132.0930   -3.0783 C   0  0  0  0  0  0  0  0  0  0  0  0
   12.7624  131.8265   -2.4017 C   0  0  0  0  0  0  0  0  0  0  0  0
   11.7645  131.6136   -1.8561 N   0  0  0  0  0  0  0  0  0  0  0  0
   14.0601  133.1174   -4.0179 C   0  0  0  0  0  0  0  0  0  0  0  0
   15.2570  133.3820   -4.6757 C   0  0  0  0  0  0  0  0  0  0  0  0
   16.6237  137.0586   -5.6795 C   0  0  0  0  0  0  0  0  0  0  0  0
   16.4538  136.8276   -4.1505 C   0  0  0  0  0  0  0  0  0  0  0  0
   17.2418  137.8651   -3.3672 C   0  0  0  0  0  0  0  0  0  0  0  0
   17.0618  137.4949   -1.9044 C   0  0  0  0  0  0  0  0  0  0  0  0
   15.6428  137.6918   -1.5716 N   0  0  0  0  0  0  0  0  0  0  0  0
   15.2829  137.8572   -0.2289 C   0  0  0  0  0  0  0  0  0  0  0  0
   14.1496  137.4743    0.1711 O   0  0  0  0  0  0  0  0  0  0  0  0
   16.1924  138.4430    0.6672 O   0  0  0  0  0  0  0  0  0  0  0  0
   16.2370  138.2465    2.0881 C   0  0  0  0  0  0  0  0  0  0  0  0
   16.9511  136.9095    2.3378 C   0  0  0  0  0  0  0  0  0  0  0  0
   17.0383  139.3731    2.7682 C   0  0  0  0  0  0  0  0  0  0  0  0
   14.8121  138.1650    2.6681 C   0  0  0  0  0  0  0  0  0  0  0  0
   14.6130  137.7201   -2.6261 C   0  0  0  0  0  0  0  0  0  0  0  0
   14.9643  136.8633   -3.8374 C   0  0  0  0  0  0  0  0  0  0  0  0
   21.0726  136.6894   -5.5276 H   0  0  0  0  0  0  0  0  0  0  0  0
   22.2900  137.6062   -4.9409 H   0  0  0  0  0  0  0  0  0  0  0  0
   21.3178  136.7868   -3.9161 H   0  0  0  0  0  0  0  0  0  0  0  0
   21.4095  139.3399   -3.0870 H   0  0  0  0  0  0  0  0  0  0  0  0
   19.9617  141.2424   -2.9388 H   0  0  0  0  0  0  0  0  0  0  0  0
   18.1473  141.4828   -4.4694 H   0  0  0  0  0  0  0  0  0  0  0  0
   17.7583  139.8349   -6.1576 H   0  0  0  0  0  0  0  0  0  0  0  0
   18.1481  135.2604   -4.6733 H   0  0  0  0  0  0  0  0  0  0  0  0
   19.2711  135.0930   -5.8469 H   0  0  0  0  0  0  0  0  0  0  0  0
   18.1080  133.4917   -6.9087 H   0  0  0  0  0  0  0  0  0  0  0  0
   16.6671  134.0696   -6.4022 H   0  0  0  0  0  0  0  0  0  0  0  0
   19.2735  131.8728   -5.5751 H   0  0  0  0  0  0  0  0  0  0  0  0
   18.4857  131.2091   -4.3080 H   0  0  0  0  0  0  0  0  0  0  0  0
   21.4851  132.9953   -4.8672 H   0  0  0  0  0  0  0  0  0  0  0  0
   20.5080  134.2652   -1.1216 H   0  0  0  0  0  0  0  0  0  0  0  0
   17.4237  132.5638   -2.4720 H   0  0  0  0  0  0  0  0  0  0  0  0
   18.1767  132.5373   -1.0233 H   0  0  0  0  0  0  0  0  0  0  0  0
   17.6595  133.9543   -1.6489 H   0  0  0  0  0  0  0  0  0  0  0  0
   17.1376  131.0528   -3.2424 H   0  0  0  0  0  0  0  0  0  0  0  0
   15.0767  130.5931   -2.1081 H   0  0  0  0  0  0  0  0  0  0  0  0
   13.2448  133.6603   -4.2192 H   0  0  0  0  0  0  0  0  0  0  0  0
   15.3075  134.1161   -5.3528 H   0  0  0  0  0  0  0  0  0  0  0  0
   15.7803  136.7606   -6.1265 H   0  0  0  0  0  0  0  0  0  0  0  0
   16.7496  138.0399   -5.8255 H   0  0  0  0  0  0  0  0  0  0  0  0
   16.8065  135.9198   -3.9233 H   0  0  0  0  0  0  0  0  0  0  0  0
   16.8826  138.7818   -3.5422 H   0  0  0  0  0  0  0  0  0  0  0  0
   18.2090  137.8324   -3.6191 H   0  0  0  0  0  0  0  0  0  0  0  0
   17.3172  136.5389   -1.7600 H   0  0  0  0  0  0  0  0  0  0  0  0
   17.6321  138.0826   -1.3305 H   0  0  0  0  0  0  0  0  0  0  0  0
   17.8755  136.9494    1.9584 H   0  0  0  0  0  0  0  0  0  0  0  0
   17.0016  136.7373    3.3215 H   0  0  0  0  0  0  0  0  0  0  0  0
   16.4410  136.1716    1.8959 H   0  0  0  0  0  0  0  0  0  0  0  0
   16.6040  140.2533    2.5770 H   0  0  0  0  0  0  0  0  0  0  0  0
   17.0579  139.2186    3.7560 H   0  0  0  0  0  0  0  0  0  0  0  0
   17.9731  139.3784    2.4130 H   0  0  0  0  0  0  0  0  0  0  0  0
   14.3253  137.3982    2.2498 H   0  0  0  0  0  0  0  0  0  0  0  0
   14.8622  138.0282    3.6574 H   0  0  0  0  0  0  0  0  0  0  0  0
   14.3238  139.0158    2.4735 H   0  0  0  0  0  0  0  0  0  0  0  0
   14.4960  138.6657   -2.9297 H   0  0  0  0  0  0  0  0  0  0  0  0
   13.7538  137.3854   -2.2393 H   0  0  0  0  0  0  0  0  0  0  0  0
   14.6559  135.9282   -3.6628 H   0  0  0  0  0  0  0  0  0  0  0  0
   14.4830  137.2299   -4.6336 H   0  0  0  0  0  0  0  0  0  0  0  0
  1  2  1  0  0  0  0
  2  3  2  0  0  0  0
  3  4  1  0  0  0  0
  4  5  2  0  0  0  0
  5  6  1  0  0  0  0
  6  7  2  0  0  0  0
  7  8  1  0  0  0  0
  8  9  2  0  0  0  0
  8 10  2  0  0  0  0
  8 11  1  0  0  0  0
 11 12  1  0  0  0  0
 12 13  1  0  0  0  0
 13 14  1  0  0  0  0
 14 15  1  0  0  0  0
 15 16  1  0  0  0  0
 16 17  2  0  0  0  0
 17 18  1  0  0  0  0
 18 19  2  0  0  0  0
 19 20  1  0  0  0  0
 20 21  1  0  0  0  0
 14 22  1  0  0  0  0
 22 23  2  0  0  0  0
 23 24  1  0  0  0  0
 24 25  2  0  0  0  0
 25 26  1  0  0  0  0
 26 27  3  0  0  0  0
 25 28  1  0  0  0  0
 28 29  2  0  0  0  0
 11 30  1  0  0  0  0
 30 31  1  0  0  0  0
 31 32  1  0  0  0  0
 32 33  1  0  0  0  0
 33 34  1  0  0  0  0
 34 35  1  0  0  0  0
 35 36  2  0  0  0  0
 35 37  1  0  0  0  0
 37 38  1  0  0  0  0
 38 39  1  0  0  0  0
 38 40  1  0  0  0  0
 38 41  1  0  0  0  0
 34 42  1  0  0  0  0
 42 43  1  0  0  0  0
  7  2  1  0  0  0  0
 20 16  1  0  0  0  0
 29 22  1  0  0  0  0
 43 31  1  0  0  0  0
  1 44  1  0  0  0  0
  1 45  1  0  0  0  0
  1 46  1  0  0  0  0
  3 47  1  0  0  0  0
  4 48  1  0  0  0  0
  5 49  1  0  0  0  0
  6 50  1  0  0  0  0
 12 51  1  0  0  0  0
 12 52  1  0  0  0  0
 13 53  1  0  0  0  0
 13 54  1  0  0  0  0
 15 55  1  0  0  0  0
 15 56  1  0  0  0  0
 17 57  1  0  0  0  0
 19 58  1  0  0  0  0
 21 59  1  0  0  0  0
 21 60  1  0  0  0  0
 21 61  1  0  0  0  0
 23 62  1  0  0  0  0
 24 63  1  0  0  0  0
 28 64  1  0  0  0  0
 29 65  1  0  0  0  0
 30 66  1  0  0  0  0
 30 67  1  0  0  0  0
 31 68  1  0  0  0  0
 32 69  1  0  0  0  0
 32 70  1  0  0  0  0
 33 71  1  0  0  0  0
 33 72  1  0  0  0  0
 39 73  1  0  0  0  0
 39 74  1  0  0  0  0
 39 75  1  0  0  0  0
 40 76  1  0  0  0  0
 40 77  1  0  0  0  0
 40 78  1  0  0  0  0
 41 79  1  0  0  0  0
 41 80  1  0  0  0  0
 41 81  1  0  0  0  0
 42 82  1  0  0  0  0
 42 83  1  0  0  0  0
 43 84  1  0  0  0  0
 43 85  1  0  0  0  0
M  END
>  <docking-score>
-19.60

$$$$
3E37_ED5_3
foFlexX   03192112163D 1   1.00000     0.00000     0
FlexX 4.5.0 fol007
 85 88  0  0  0  0            999 V2000
   21.3551  137.2899   -4.7795 C   0  0  0  0  0  0  0  0  0  0  0  0
   20.4203  138.4864   -4.7095 C   0  0  0  0  0  0  0  0  0  0  0  0
   20.6479  139.4443   -3.7266 C   0  0  0  0  0  0  0  0  0  0  0  0
   19.8065  140.5483   -3.6417 C   0  0  0  0  0  0  0  0  0  0  0  0
   18.7492  140.6868   -4.5349 C   0  0  0  0  0  0  0  0  0  0  0  0
   18.5200  139.7299   -5.5182 C   0  0  0  0  0  0  0  0  0  0  0  0
   19.3618  138.6252   -5.6027 C   0  0  0  0  0  0  0  0  0  0  0  0
   19.0547  137.4165   -6.8617 S   0  0  0  0  0  0  0  0  0  0  0  0
   18.6570  138.1247   -8.1279 O   0  0  0  0  0  0  0  0  0  0  0  0
   20.3217  136.6434   -7.1032 O   0  0  0  0  0  0  0  0  0  0  0  0
   17.7568  136.3554   -6.3399 N   0  0  0  0  0  0  0  0  0  0  0  0
   18.2915  135.1601   -5.6579 C   0  0  0  0  0  0  0  0  0  0  0  0
   17.6070  133.8657   -6.1283 C   0  0  0  0  0  0  0  0  0  0  0  0
   17.5923  132.8770   -5.0422 N   0  0  0  0  0  0  0  0  0  0  0  0
   18.7752  132.0680   -4.7304 C   0  0  0  0  0  0  0  0  0  0  0  0
   19.6753  132.8065   -3.7839 C   0  0  0  0  0  0  0  0  0  0  0  0
   20.9665  133.1706   -4.0303 C   0  0  0  0  0  0  0  0  0  0  0  0
   21.4154  133.8193   -2.9183 N   0  0  0  0  0  0  0  0  0  0  0  0
   20.4452  133.8516   -2.0299 C   0  0  0  0  0  0  0  0  0  0  0  0
   19.3438  133.2357   -2.5375 N   0  0  0  0  0  0  0  0  0  0  0  0
   18.0472  133.0586   -1.8668 C   0  0  0  0  0  0  0  0  0  0  0  0
   16.3831  132.6185   -4.3853 C   0  0  0  0  0  0  0  0  0  0  0  0
   16.3223  131.5954   -3.4445 C   0  0  0  0  0  0  0  0  0  0  0  0
   15.1274  131.3275   -2.7850 C   0  0  0  0  0  0  0  0  0  0  0  0
   14.0043  132.0930   -3.0783 C   0  0  0  0  0  0  0  0  0  0  0  0
   12.7624  131.8265   -2.4017 C   0  0  0  0  0  0  0  0  0  0  0  0
   11.7645  131.6136   -1.8561 N   0  0  0  0  0  0  0  0  0  0  0  0
   14.0601  133.1174   -4.0179 C   0  0  0  0  0  0  0  0  0  0  0  0
   15.2570  133.3820   -4.6757 C   0  0  0  0  0  0  0  0  0  0  0  0
   16.6237  137.0586   -5.6795 C   0  0  0  0  0  0  0  0  0  0  0  0
   16.4538  136.8276   -4.1505 C   0  0  0  0  0  0  0  0  0  0  0  0
   17.2418  137.8651   -3.3672 C   0  0  0  0  0  0  0  0  0  0  0  0
   17.0618  137.4949   -1.9044 C   0  0  0  0  0  0  0  0  0  0  0  0
   15.6428  137.6918   -1.5716 N   0  0  0  0  0  0  0  0  0  0  0  0
   15.2829  137.8572   -0.2289 C   0  0  0  0  0  0  0  0  0  0  0  0
   14.2763  138.5552    0.0719 O   0  0  0  0  0  0  0  0  0  0  0  0
   16.0432  137.2362    0.7759 O   0  0  0  0  0  0  0  0  0  0  0  0
   16.1529  137.6544    2.1443 C   0  0  0  0  0  0  0  0  0  0  0  0
   14.7388  137.6184    2.7432 C   0  0  0  0  0  0  0  0  0  0  0  0
   17.0539  136.6887    2.9377 C   0  0  0  0  0  0  0  0  0  0  0  0
   16.6919  139.0952    2.2283 C   0  0  0  0  0  0  0  0  0  0  0  0
   14.6130  137.7201   -2.6261 C   0  0  0  0  0  0  0  0  0  0  0  0
   14.9643  136.8633   -3.8374 C   0  0  0  0  0  0  0  0  0  0  0  0
   21.0726  136.6894   -5.5276 H   0  0  0  0  0  0  0  0  0  0  0  0
   22.2900  137.6062   -4.9409 H   0  0  0  0  0  0  0  0  0  0  0  0
   21.3178  136.7868   -3.9161 H   0  0  0  0  0  0  0  0  0  0  0  0
   21.4095  139.3399   -3.0870 H   0  0  0  0  0  0  0  0  0  0  0  0
   19.9617  141.2424   -2.9388 H   0  0  0  0  0  0  0  0  0  0  0  0
   18.1473  141.4828   -4.4694 H   0  0  0  0  0  0  0  0  0  0  0  0
   17.7583  139.8349   -6.1576 H   0  0  0  0  0  0  0  0  0  0  0  0
   18.1481  135.2604   -4.6733 H   0  0  0  0  0  0  0  0  0  0  0  0
   19.2711  135.0930   -5.8469 H   0  0  0  0  0  0  0  0  0  0  0  0
   18.1080  133.4917   -6.9087 H   0  0  0  0  0  0  0  0  0  0  0  0
   16.6671  134.0696   -6.4022 H   0  0  0  0  0  0  0  0  0  0  0  0
   19.2735  131.8728   -5.5751 H   0  0  0  0  0  0  0  0  0  0  0  0
   18.4857  131.2091   -4.3080 H   0  0  0  0  0  0  0  0  0  0  0  0
   21.4851  132.9953   -4.8672 H   0  0  0  0  0  0  0  0  0  0  0  0
   20.5080  134.2652   -1.1216 H   0  0  0  0  0  0  0  0  0  0  0  0
   17.4237  132.5638   -2.4720 H   0  0  0  0  0  0  0  0  0  0  0  0
   18.1767  132.5373   -1.0233 H   0  0  0  0  0  0  0  0  0  0  0  0
   17.6595  133.9543   -1.6489 H   0  0  0  0  0  0  0  0  0  0  0  0
   17.1376  131.0528   -3.2424 H   0  0  0  0  0  0  0  0  0  0  0  0
   15.0767  130.5931   -2.1081 H   0  0  0  0  0  0  0  0  0  0  0  0
   13.2448  133.6603   -4.2192 H   0  0  0  0  0  0  0  0  0  0  0  0
   15.3075  134.1161   -5.3528 H   0  0  0  0  0  0  0  0  0  0  0  0
   15.7803  136.7606   -6.1265 H   0  0  0  0  0  0  0  0  0  0  0  0
   16.7496  138.0399   -5.8255 H   0  0  0  0  0  0  0  0  0  0  0  0
   16.8065  135.9198   -3.9233 H   0  0  0  0  0  0  0  0  0  0  0  0
   16.8826  138.7818   -3.5422 H   0  0  0  0  0  0  0  0  0  0  0  0
   18.2090  137.8324   -3.6191 H   0  0  0  0  0  0  0  0  0  0  0  0
   17.3172  136.5389   -1.7600 H   0  0  0  0  0  0  0  0  0  0  0  0
   17.6321  138.0826   -1.3305 H   0  0  0  0  0  0  0  0  0  0  0  0
   14.3766  136.6880    2.6872 H   0  0  0  0  0  0  0  0  0  0  0  0
   14.7749  137.9049    3.7006 H   0  0  0  0  0  0  0  0  0  0  0  0
   14.1443  138.2389    2.2318 H   0  0  0  0  0  0  0  0  0  0  0  0
   17.9668  136.6737    2.5300 H   0  0  0  0  0  0  0  0  0  0  0  0
   17.1178  136.9965    3.8870 H   0  0  0  0  0  0  0  0  0  0  0  0
   16.6617  135.7692    2.9111 H   0  0  0  0  0  0  0  0  0  0  0  0
   16.0681  139.7129    1.7494 H   0  0  0  0  0  0  0  0  0  0  0  0
   16.7618  139.3696    3.1873 H   0  0  0  0  0  0  0  0  0  0  0  0
   17.5957  139.1383    1.8025 H   0  0  0  0  0  0  0  0  0  0  0  0
   14.4960  138.6657   -2.9297 H   0  0  0  0  0  0  0  0  0  0  0  0
   13.7538  137.3854   -2.2393 H   0  0  0  0  0  0  0  0  0  0  0  0
   14.6559  135.9282   -3.6628 H   0  0  0  0  0  0  0  0  0  0  0  0
   14.4830  137.2299   -4.6336 H   0  0  0  0  0  0  0  0  0  0  0  0
  1  2  1  0  0  0  0
  2  3  2  0  0  0  0
  3  4  1  0  0  0  0
  4  5  2  0  0  0  0
  5  6  1  0  0  0  0
  6  7  2  0  0  0  0
  7  8  1  0  0  0  0
  8  9  2  0  0  0  0
  8 10  2  0  0  0  0
  8 11  1  0  0  0  0
 11 12  1  0  0  0  0
 12 13  1  0  0  0  0
 13 14  1  0  0  0  0
 14 15  1  0  0  0  0
 15 16  1  0  0  0  0
 16 17  2  0  0  0  0
 17 18  1  0  0  0  0
 18 19  2  0  0  0  0
 19 20  1  0  0  0  0
 20 21  1  0  0  0  0
 14 22  1  0  0  0  0
 22 23  2  0  0  0  0
 23 24  1  0  0  0  0
 24 25  2  0  0  0  0
 25 26  1  0  0  0  0
 26 27  3  0  0  0  0
 25 28  1  0  0  0  0
 28 29  2  0  0  0  0
 11 30  1  0  0  0  0
 30 31  1  0  0  0  0
 31 32  1  0  0  0  0
 32 33  1  0  0  0  0
 33 34  1  0  0  0  0
 34 35  1  0  0  0  0
 35 36  2  0  0  0  0
 35 37  1  0  0  0  0
 37 38  1  0  0  0  0
 38 39  1  0  0  0  0
 38 40  1  0  0  0  0
 38 41  1  0  0  0  0
 34 42  1  0  0  0  0
 42 43  1  0  0  0  0
  7  2  1  0  0  0  0
 20 16  1  0  0  0  0
 29 22  1  0  0  0  0
 43 31  1  0  0  0  0
  1 44  1  0  0  0  0
  1 45  1  0  0  0  0
  1 46  1  0  0  0  0
  3 47  1  0  0  0  0
  4 48  1  0  0  0  0
  5 49  1  0  0  0  0
  6 50  1  0  0  0  0
 12 51  1  0  0  0  0
 12 52  1  0  0  0  0
 13 53  1  0  0  0  0
 13 54  1  0  0  0  0
 15 55  1  0  0  0  0
 15 56  1  0  0  0  0
 17 57  1  0  0  0  0
 19 58  1  0  0  0  0
 21 59  1  0  0  0  0
 21 60  1  0  0  0  0
 21 61  1  0  0  0  0
 23 62  1  0  0  0  0
 24 63  1  0  0  0  0
 28 64  1  0  0  0  0
 29 65  1  0  0  0  0
 30 66  1  0  0  0  0
 30 67  1  0  0  0  0
 31 68  1  0  0  0  0
 32 69  1  0  0  0  0
 32 70  1  0  0  0  0
 33 71  1  0  0  0  0
 33 72  1  0  0  0  0
 39 73  1  0  0  0  0
 39 74  1  0  0  0  0
 39 75  1  0  0  0  0
 40 76  1  0  0  0  0
 40 77  1  0  0  0  0
 40 78  1  0  0  0  0
 41 79  1  0  0  0  0
 41 80  1  0  0  0  0
 41 81  1  0  0  0  0
 42 82  1  0  0  0  0
 42 83  1  0  0  0  0
 43 84  1  0  0  0  0
 43 85  1  0  0  0  0
M  END
>  <docking-score>
-19.37

$$$$
2IEJ_S48_1
foFlexX   03192112163D 1   1.00000     0.00000     0
FlexX 4.5.0 fol007
 68 72  0  0  0  0            999 V2000
   18.2723  133.9656   -9.8907 C   0  0  0  0  0  0  0  0  0  0  0  0
   17.9488  134.6147   -8.6674 O   0  0  0  0  0  0  0  0  0  0  0  0
   18.3472  135.9238   -8.3822 C   0  0  0  0  0  0  0  0  0  0  0  0
   18.6777  136.7126   -9.3102 O   0  0  0  0  0  0  0  0  0  0  0  0
   18.4203  136.3789   -6.9566 C   0  0  0  0  0  0  0  0  0  0  0  0
   19.3494  135.5236   -6.1800 N   0  0  0  0  0  0  0  0  0  0  0  0
   18.7294  134.9363   -4.9503 C   0  0  2  0  0  0  0  0  0  0  0  0
   19.6808  133.8850   -4.4024 C   0  0  0  0  0  0  0  0  0  0  0  0
   18.9705  133.2762   -3.2071 C   0  0  0  0  0  0  0  0  0  0  0  0
   19.6638  133.0580   -2.0222 C   0  0  0  0  0  0  0  0  0  0  0  0
   18.9717  132.5345   -0.9336 C   0  0  0  0  0  0  0  0  0  0  0  0
   19.6762  132.3434    0.3195 C   0  0  0  0  0  0  0  0  0  0  0  0
   20.7322  133.1873    0.6462 C   0  0  0  0  0  0  0  0  0  0  0  0
   21.4039  132.9983    1.8493 C   0  0  0  0  0  0  0  0  0  0  0  0
   21.0245  131.9786    2.7150 C   0  0  0  0  0  0  0  0  0  0  0  0
   19.9670  131.1389    2.3798 C   0  0  0  0  0  0  0  0  0  0  0  0
   19.2892  131.3201    1.1788 C   0  0  0  0  0  0  0  0  0  0  0  0
   17.6235  132.2070   -1.0294 C   0  0  0  0  0  0  0  0  0  0  0  0
   16.9675  132.4195   -2.2381 C   0  0  0  0  0  0  0  0  0  0  0  0
   17.6241  132.9522   -3.3421 C   0  0  0  0  0  0  0  0  0  0  0  0
   16.9824  133.1913   -4.5721 N   0  0  0  0  0  0  0  0  0  0  0  0
   15.9475  132.2925   -5.1045 C   0  0  0  0  0  0  0  0  0  0  0  0
   14.6137  132.5508   -4.4560 C   0  0  0  0  0  0  0  0  0  0  0  0
   13.8903  131.6495   -3.7316 C   0  0  0  0  0  0  0  0  0  0  0  0
   12.7551  132.2860   -3.3255 N   0  0  0  0  0  0  0  0  0  0  0  0
   12.7797  133.5207   -3.7797 C   0  0  0  0  0  0  0  0  0  0  0  0
   13.9263  133.7231   -4.4831 N   0  0  0  0  0  0  0  0  0  0  0  0
   14.3403  134.9653   -5.1523 C   0  0  0  0  0  0  0  0  0  0  0  0
   17.3548  134.4010   -5.3242 C   0  0  0  0  0  0  0  0  0  0  0  0
   20.7907  136.4692   -5.7816 S   0  0  0  0  0  0  0  0  0  0  0  0
   21.1167  137.4600   -6.8649 O   0  0  0  0  0  0  0  0  0  0  0  0
   21.9639  135.5383   -5.6506 O   0  0  0  0  0  0  0  0  0  0  0  0
   20.5950  137.3691   -4.2816 C   0  0  0  0  0  0  0  0  0  0  0  0
   20.3485  136.8178   -3.0616 C   0  0  0  0  0  0  0  0  0  0  0  0
   20.2712  137.8640   -2.1975 N   0  0  0  0  0  0  0  0  0  0  0  0
   20.0190  137.7705   -0.7525 C   0  0  0  0  0  0  0  0  0  0  0  0
   20.4698  139.0146   -2.8969 C   0  0  0  0  0  0  0  0  0  0  0  0
   20.6676  138.7252   -4.1618 N   0  0  0  0  0  0  0  0  0  0  0  0
   19.2663  133.9175   -9.9898 H   0  0  0  0  0  0  0  0  0  0  0  0
   17.8924  133.0406   -9.8879 H   0  0  0  0  0  0  0  0  0  0  0  0
   17.8859  134.4824  -10.6547 H   0  0  0  0  0  0  0  0  0  0  0  0
   17.5087  136.3279   -6.5487 H   0  0  0  0  0  0  0  0  0  0  0  0
   18.7449  137.3244   -6.9302 H   0  0  0  0  0  0  0  0  0  0  0  0
   18.6195  135.6589   -4.2678 H   0  0  0  0  0  0  0  0  0  0  0  0
   19.8637  133.1856   -5.0933 H   0  0  0  0  0  0  0  0  0  0  0  0
   20.5420  134.3070   -4.1192 H   0  0  0  0  0  0  0  0  0  0  0  0
   20.6382  133.2723   -1.9533 H   0  0  0  0  0  0  0  0  0  0  0  0
   21.0052  133.9209    0.0238 H   0  0  0  0  0  0  0  0  0  0  0  0
   22.1647  133.5996    2.0933 H   0  0  0  0  0  0  0  0  0  0  0  0
   21.5117  131.8488    3.5786 H   0  0  0  0  0  0  0  0  0  0  0  0
   19.6943  130.4052    3.0022 H   0  0  0  0  0  0  0  0  0  0  0  0
   18.5285  130.7186    0.9346 H   0  0  0  0  0  0  0  0  0  0  0  0
   17.1347  131.8260   -0.2446 H   0  0  0  0  0  0  0  0  0  0  0  0
   15.9989  132.1829   -2.3148 H   0  0  0  0  0  0  0  0  0  0  0  0
   16.2169  131.3454   -4.9297 H   0  0  0  0  0  0  0  0  0  0  0  0
   15.8644  132.4388   -6.0903 H   0  0  0  0  0  0  0  0  0  0  0  0
   14.1443  130.7023   -3.5356 H   0  0  0  0  0  0  0  0  0  0  0  0
   12.0657  134.2048   -3.6309 H   0  0  0  0  0  0  0  0  0  0  0  0
   15.2241  134.8250   -5.5985 H   0  0  0  0  0  0  0  0  0  0  0  0
   13.6574  135.2183   -5.8376 H   0  0  0  0  0  0  0  0  0  0  0  0
   14.4208  135.6975   -4.4759 H   0  0  0  0  0  0  0  0  0  0  0  0
   16.6756  135.1116   -5.1406 H   0  0  0  0  0  0  0  0  0  0  0  0
   17.3530  134.1823   -6.3000 H   0  0  0  0  0  0  0  0  0  0  0  0
   20.2458  135.8466   -2.8464 H   0  0  0  0  0  0  0  0  0  0  0  0
   20.0149  138.6881   -0.3548 H   0  0  0  0  0  0  0  0  0  0  0  0
   19.1323  137.3355   -0.5963 H   0  0  0  0  0  0  0  0  0  0  0  0
   20.7384  137.2245   -0.3232 H   0  0  0  0  0  0  0  0  0  0  0  0
   20.4656  139.9358   -2.5081 H   0  0  0  0  0  0  0  0  0  0  0  0
  1  2  1  0  0  0  0
  2  3  1  0  0  0  0
  3  4  2  0  0  0  0
  3  5  1  0  0  0  0
  5  6  1  0  0  0  0
  6  7  1  0  0  0  0
  7  8  1  0  0  0  0
  8  9  1  0  0  0  0
  9 10  2  0  0  0  0
 10 11  1  0  0  0  0
 11 12  1  0  0  0  0
 12 13  2  0  0  0  0
 13 14  1  0  0  0  0
 14 15  2  0  0  0  0
 15 16  1  0  0  0  0
 16 17  2  0  0  0  0
 11 18  2  0  0  0  0
 18 19  1  0  0  0  0
 19 20  2  0  0  0  0
 20 21  1  0  0  0  0
 21 22  1  0  0  0  0
 22 23  1  0  0  0  0
 23 24  2  0  0  0  0
 24 25  1  0  0  0  0
 25 26  2  0  0  0  0
 26 27  1  0  0  0  0
 27 28  1  0  0  0  0
 21 29  1  0  0  0  0
  6 30  1  0  0  0  0
 30 31  2  0  0  0  0
 30 32  2  0  0  0  0
 30 33  1  0  0  0  0
 33 34  2  0  0  0  0
 34 35  1  0  0  0  0
 35 36  1  0  0  0  0
 35 37  1  0  0  0  0
 37 38  2  0  0  0  0
 29  7  1  0  0  0  0
 38 33  1  0  0  0  0
 20  9  1  0  0  0  0
 27 23  1  0  0  0  0
 17 12  1  0  0  0  0
  1 39  1  0  0  0  0
  1 40  1  0  0  0  0
  1 41  1  0  0  0  0
  5 42  1  0  0  0  0
  5 43  1  0  0  0  0
  7 44  1  0  0  0  0
  8 45  1  0  0  0  0
  8 46  1  0  0  0  0
 10 47  1  0  0  0  0
 13 48  1  0  0  0  0
 14 49  1  0  0  0  0
 15 50  1  0  0  0  0
 16 51  1  0  0  0  0
 17 52  1  0  0  0  0
 18 53  1  0  0  0  0
 19 54  1  0  0  0  0
 22 55  1  0  0  0  0
 22 56  1  0  0  0  0
 24 57  1  0  0  0  0
 26 58  1  0  0  0  0
 28 59  1  0  0  0  0
 28 60  1  0  0  0  0
 28 61  1  0  0  0  0
 29 62  1  0  0  0  0
 29 63  1  0  0  0  0
 34 64  1  0  0  0  0
 36 65  1  0  0  0  0
 36 66  1  0  0  0  0
 36 67  1  0  0  0  0
 37 68  1  0  0  0  0
M  END
>  <docking-score>
-23.80

$$$$
2IEJ_S48_2
foFlexX   03192112163D 1   1.00000     0.00000     0
FlexX 4.5.0 fol007
 68 72  0  0  0  0            999 V2000
   18.2691  134.0125   -9.9433 C   0  0  0  0  0  0  0  0  0  0  0  0
   17.9451  134.6466   -8.7123 O   0  0  0  0  0  0  0  0  0  0  0  0
   18.3462  135.9510   -8.4097 C   0  0  0  0  0  0  0  0  0  0  0  0
   18.6803  136.7507   -9.3270 O   0  0  0  0  0  0  0  0  0  0  0  0
   18.4180  136.3876   -6.9782 C   0  0  0  0  0  0  0  0  0  0  0  0
   19.3437  135.5200   -6.2111 N   0  0  0  0  0  0  0  0  0  0  0  0
   18.7201  134.9186   -4.9900 C   0  0  2  0  0  0  0  0  0  0  0  0
   19.6679  133.8579   -4.4541 C   0  0  0  0  0  0  0  0  0  0  0  0
   18.9540  133.2357   -3.2679 C   0  0  0  0  0  0  0  0  0  0  0  0
   19.6448  133.0006   -2.0847 C   0  0  0  0  0  0  0  0  0  0  0  0
   18.9495  132.4650   -1.0041 C   0  0  0  0  0  0  0  0  0  0  0  0
   19.6513  132.2560    0.2477 C   0  0  0  0  0  0  0  0  0  0  0  0
   18.9511  132.3380    1.4464 C   0  0  0  0  0  0  0  0  0  0  0  0
   19.6302  132.1371    2.6434 C   0  0  0  0  0  0  0  0  0  0  0  0
   20.9921  131.8573    2.6420 C   0  0  0  0  0  0  0  0  0  0  0  0
   21.6846  131.7775    1.4379 C   0  0  0  0  0  0  0  0  0  0  0  0
   21.0142  131.9770    0.2357 C   0  0  0  0  0  0  0  0  0  0  0  0
   17.6006  132.1421   -1.1063 C   0  0  0  0  0  0  0  0  0  0  0  0
   16.9472  132.3717   -2.3133 C   0  0  0  0  0  0  0  0  0  0  0  0
   17.6071  132.9169   -3.4093 C   0  0  0  0  0  0  0  0  0  0  0  0
   16.9681  133.1733   -4.6372 N   0  0  0  0  0  0  0  0  0  0  0  0
   15.9318  132.2840   -5.1829 C   0  0  0  0  0  0  0  0  0  0  0  0
   14.5976  132.5374   -4.5333 C   0  0  0  0  0  0  0  0  0  0  0  0
   13.8707  131.6287   -3.8217 C   0  0  0  0  0  0  0  0  0  0  0  0
   12.7364  132.2628   -3.4094 N   0  0  0  0  0  0  0  0  0  0  0  0
   12.7649  133.5032   -3.8478 C   0  0  0  0  0  0  0  0  0  0  0  0
   13.9132  133.7117   -4.5465 N   0  0  0  0  0  0  0  0  0  0  0  0
   14.3314  134.9613   -5.1991 C   0  0  0  0  0  0  0  0  0  0  0  0
   17.3448  134.3916   -5.3731 C   0  0  0  0  0  0  0  0  0  0  0  0
   20.7867  136.4568   -5.7983 S   0  0  0  0  0  0  0  0  0  0  0  0
   21.1170  137.4605   -6.8682 O   0  0  0  0  0  0  0  0  0  0  0  0
   21.9573  135.5213   -5.6771 O   0  0  0  0  0  0  0  0  0  0  0  0
   20.5906  137.3379   -4.2871 C   0  0  0  0  0  0  0  0  0  0  0  0
   20.3407  136.7716   -3.0748 C   0  0  0  0  0  0  0  0  0  0  0  0
   20.2646  137.8069   -2.1974 N   0  0  0  0  0  0  0  0  0  0  0  0
   20.0096  137.6956   -0.7541 C   0  0  0  0  0  0  0  0  0  0  0  0
   20.4672  138.9658   -2.8817 C   0  0  0  0  0  0  0  0  0  0  0  0
   20.6664  138.6922   -4.1499 N   0  0  0  0  0  0  0  0  0  0  0  0
   19.2630  133.9631  -10.0413 H   0  0  0  0  0  0  0  0  0  0  0  0
   17.8869  133.0885   -9.9530 H   0  0  0  0  0  0  0  0  0  0  0  0
   17.8852  134.5400  -10.7012 H   0  0  0  0  0  0  0  0  0  0  0  0
   17.5056  136.3337   -6.5725 H   0  0  0  0  0  0  0  0  0  0  0  0
   18.7450  137.3318   -6.9391 H   0  0  0  0  0  0  0  0  0  0  0  0
   18.6108  135.6327   -4.2986 H   0  0  0  0  0  0  0  0  0  0  0  0
   19.8503  133.1670   -5.1537 H   0  0  0  0  0  0  0  0  0  0  0  0
   20.5297  134.2741   -4.1640 H   0  0  0  0  0  0  0  0  0  0  0  0
   20.6196  133.2115   -2.0114 H   0  0  0  0  0  0  0  0  0  0  0  0
   17.9715  132.5390    1.4477 H   0  0  0  0  0  0  0  0  0  0  0  0
   19.1357  132.1941    3.5107 H   0  0  0  0  0  0  0  0  0  0  0  0
   21.4739  131.7135    3.5064 H   0  0  0  0  0  0  0  0  0  0  0  0
   22.6643  131.5767    1.4369 H   0  0  0  0  0  0  0  0  0  0  0  0
   21.5087  131.9202   -0.6316 H   0  0  0  0  0  0  0  0  0  0  0  0
   17.1096  131.7523   -0.3273 H   0  0  0  0  0  0  0  0  0  0  0  0
   15.9782  132.1386   -2.3946 H   0  0  0  0  0  0  0  0  0  0  0  0
   16.1986  131.3341   -5.0198 H   0  0  0  0  0  0  0  0  0  0  0  0
   15.8508  132.4432   -6.1668 H   0  0  0  0  0  0  0  0  0  0  0  0
   14.1219  130.6784   -3.6375 H   0  0  0  0  0  0  0  0  0  0  0  0
   12.0523  134.1871   -3.6914 H   0  0  0  0  0  0  0  0  0  0  0  0
   15.2157  134.8245   -5.6455 H   0  0  0  0  0  0  0  0  0  0  0  0
   13.6503  135.2248   -5.8822 H   0  0  0  0  0  0  0  0  0  0  0  0
   14.4126  135.6845   -4.5132 H   0  0  0  0  0  0  0  0  0  0  0  0
   16.6671  135.1016   -5.1816 H   0  0  0  0  0  0  0  0  0  0  0  0
   17.3441  134.1855   -6.3517 H   0  0  0  0  0  0  0  0  0  0  0  0
   20.2351  135.7981   -2.8721 H   0  0  0  0  0  0  0  0  0  0  0  0
   20.0071  138.6079   -0.3448 H   0  0  0  0  0  0  0  0  0  0  0  0
   19.1215  137.2608   -0.6051 H   0  0  0  0  0  0  0  0  0  0  0  0
   20.7269  137.1422   -0.3307 H   0  0  0  0  0  0  0  0  0  0  0  0
   20.4646  139.8820   -2.4810 H   0  0  0  0  0  0  0  0  0  0  0  0
  1  2  1  0  0  0  0
  2  3  1  0  0  0  0
  3  4  2  0  0  0  0
  3  5  1  0  0  0  0
  5  6  1  0  0  0  0
  6  7  1  0  0  0  0
  7  8  1  0  0  0  0
  8  9  1  0  0  0  0
  9 10  2  0  0  0  0
 10 11  1  0  0  0  0
 11 12  1  0  0  0  0
 12 13  2  0  0  0  0
 13 14  1  0  0  0  0
 14 15  2  0  0  0  0
 15 16  1  0  0  0  0
 16 17  2  0  0  0  0
 11 18  2  0  0  0  0
 18 19  1  0  0  0  0
 19 20  2  0  0  0  0
 20 21  1  0  0  0  0
 21 22  1  0  0  0  0
 22 23  1  0  0  0  0
 23 24  2  0  0  0  0
 24 25  1  0  0  0  0
 25 26  2  0  0  0  0
 26 27  1  0  0  0  0
 27 28  1  0  0  0  0
 21 29  1  0  0  0  0
  6 30  1  0  0  0  0
 30 31  2  0  0  0  0
 30 32  2  0  0  0  0
 30 33  1  0  0  0  0
 33 34  2  0  0  0  0
 34 35  1  0  0  0  0
 35 36  1  0  0  0  0
 35 37  1  0  0  0  0
 37 38  2  0  0  0  0
 29  7  1  0  0  0  0
 38 33  1  0  0  0  0
 20  9  1  0  0  0  0
 27 23  1  0  0  0  0
 17 12  1  0  0  0  0
  1 39  1  0  0  0  0
  1 40  1  0  0  0  0
  1 41  1  0  0  0  0
  5 42  1  0  0  0  0
  5 43  1  0  0  0  0
  7 44  1  0  0  0  0
  8 45  1  0  0  0  0
  8 46  1  0  0  0  0
 10 47  1  0  0  0  0
 13 48  1  0  0  0  0
 14 49  1  0  0  0  0
 15 50  1  0  0  0  0
 16 51  1  0  0  0  0
 17 52  1  0  0  0  0
 18 53  1  0  0  0  0
 19 54  1  0  0  0  0
 22 55  1  0  0  0  0
 22 56  1  0  0  0  0
 24 57  1  0  0  0  0
 26 58  1  0  0  0  0
 28 59  1  0  0  0  0
 28 60  1  0  0  0  0
 28 61  1  0  0  0  0
 29 62  1  0  0  0  0
 29 63  1  0  0  0  0
 34 64  1  0  0  0  0
 36 65  1  0  0  0  0
 36 66  1  0  0  0  0
 36 67  1  0  0  0  0
 37 68  1  0  0  0  0
M  END
>  <docking-score>
-22.85

$$$$
2IEJ_S48_3
foFlexX   03192112163D 1   1.00000     0.00000     0
FlexX 4.5.0 fol007
 68 72  0  0  0  0            999 V2000
   18.0598  135.5141   -9.8894 C   0  0  0  0  0  0  0  0  0  0  0  0
   18.2147  135.4952   -8.4758 O   0  0  0  0  0  0  0  0  0  0  0  0
   18.8946  136.4989   -7.7800 C   0  0  0  0  0  0  0  0  0  0  0  0
   19.7100  137.2557   -8.3758 O   0  0  0  0  0  0  0  0  0  0  0  0
   18.6812  136.6483   -6.3046 C   0  0  0  0  0  0  0  0  0  0  0  0
   19.6255  135.7912   -5.5486 N   0  0  0  0  0  0  0  0  0  0  0  0
   19.0449  135.2387   -4.2840 C   0  0  2  0  0  0  0  0  0  0  0  0
   19.9990  134.1808   -3.7536 C   0  0  0  0  0  0  0  0  0  0  0  0
   19.3264  133.6078   -2.5195 C   0  0  0  0  0  0  0  0  0  0  0  0
   20.0625  133.3996   -1.3588 C   0  0  0  0  0  0  0  0  0  0  0  0
   19.4053  132.9094   -0.2337 C   0  0  0  0  0  0  0  0  0  0  0  0
   20.1556  132.7293    0.9942 C   0  0  0  0  0  0  0  0  0  0  0  0
   21.2382  133.5600    1.2623 C   0  0  0  0  0  0  0  0  0  0  0  0
   21.9539  133.3817    2.4415 C   0  0  0  0  0  0  0  0  0  0  0  0
   21.5916  132.3857    3.3413 C   0  0  0  0  0  0  0  0  0  0  0  0
   20.5073  131.5590    3.0646 C   0  0  0  0  0  0  0  0  0  0  0  0
   19.7854  131.7296    1.8880 C   0  0  0  0  0  0  0  0  0  0  0  0
   18.0488  132.6045   -0.2698 C   0  0  0  0  0  0  0  0  0  0  0  0
   17.3490  132.8059   -1.4556 C   0  0  0  0  0  0  0  0  0  0  0  0
   17.9703  133.3057   -2.5948 C   0  0  0  0  0  0  0  0  0  0  0  0
   17.2844  133.5330   -3.8031 N   0  0  0  0  0  0  0  0  0  0  0  0
   16.2137  132.6431   -4.2765 C   0  0  0  0  0  0  0  0  0  0  0  0
   14.8545  133.2166   -3.9765 C   0  0  0  0  0  0  0  0  0  0  0  0
   14.3703  134.4056   -4.4372 C   0  0  0  0  0  0  0  0  0  0  0  0
   13.1103  134.5427   -3.9348 N   0  0  0  0  0  0  0  0  0  0  0  0
   12.8335  133.4872   -3.1994 C   0  0  0  0  0  0  0  0  0  0  0  0
   13.8950  132.6367   -3.2079 N   0  0  0  0  0  0  0  0  0  0  0  0
   13.9923  131.3441   -2.5136 C   0  0  0  0  0  0  0  0  0  0  0  0
   17.6474  134.7213   -4.5929 C   0  0  0  0  0  0  0  0  0  0  0  0
   21.0977  136.7180   -5.2261 S   0  0  0  0  0  0  0  0  0  0  0  0
   21.3974  137.6820   -6.3406 O   0  0  0  0  0  0  0  0  0  0  0  0
   22.2589  135.7687   -5.1231 O   0  0  0  0  0  0  0  0  0  0  0  0
   20.9774  137.6496   -3.7375 C   0  0  0  0  0  0  0  0  0  0  0  0
   20.0999  137.4039   -2.7262 C   0  0  0  0  0  0  0  0  0  0  0  0
   20.3510  138.3534   -1.7867 N   0  0  0  0  0  0  0  0  0  0  0  0
   19.6529  138.4991   -0.5015 C   0  0  0  0  0  0  0  0  0  0  0  0
   21.3615  139.1465   -2.2366 C   0  0  0  0  0  0  0  0  0  0  0  0
   21.7489  138.7276   -3.4187 N   0  0  0  0  0  0  0  0  0  0  0  0
   18.9607  135.5083  -10.3235 H   0  0  0  0  0  0  0  0  0  0  0  0
   17.5450  134.7073  -10.1791 H   0  0  0  0  0  0  0  0  0  0  0  0
   17.5650  136.3401  -10.1594 H   0  0  0  0  0  0  0  0  0  0  0  0
   17.7440  136.3816   -6.0798 H   0  0  0  0  0  0  0  0  0  0  0  0
   18.8268  137.6036   -6.0470 H   0  0  0  0  0  0  0  0  0  0  0  0
   18.9747  135.9759   -3.6121 H   0  0  0  0  0  0  0  0  0  0  0  0
   20.1422  133.4653   -4.4374 H   0  0  0  0  0  0  0  0  0  0  0  0
   20.8780  134.5925   -3.5129 H   0  0  0  0  0  0  0  0  0  0  0  0
   21.0423  133.5975   -1.3326 H   0  0  0  0  0  0  0  0  0  0  0  0
   21.4989  134.2767    0.6154 H   0  0  0  0  0  0  0  0  0  0  0  0
   22.7341  133.9737    2.6434 H   0  0  0  0  0  0  0  0  0  0  0  0
   22.1105  132.2634    4.1874 H   0  0  0  0  0  0  0  0  0  0  0  0
   20.2470  130.8423    3.7116 H   0  0  0  0  0  0  0  0  0  0  0  0
   19.0054  131.1374    1.6859 H   0  0  0  0  0  0  0  0  0  0  0  0
   17.5851  132.2473    0.5411 H   0  0  0  0  0  0  0  0  0  0  0  0
   16.3741  132.5855   -1.4893 H   0  0  0  0  0  0  0  0  0  0  0  0
   16.3012  131.7570   -3.8213 H   0  0  0  0  0  0  0  0  0  0  0  0
   16.3048  132.5206   -5.2648 H   0  0  0  0  0  0  0  0  0  0  0  0
   14.8484  135.0534   -5.0303 H   0  0  0  0  0  0  0  0  0  0  0  0
   11.9752  133.3340   -2.7096 H   0  0  0  0  0  0  0  0  0  0  0  0
   14.8889  130.9377   -2.6898 H   0  0  0  0  0  0  0  0  0  0  0  0
   13.8774  131.4845   -1.5302 H   0  0  0  0  0  0  0  0  0  0  0  0
   13.2768  130.7311   -2.8486 H   0  0  0  0  0  0  0  0  0  0  0  0
   16.9885  135.4475   -4.3966 H   0  0  0  0  0  0  0  0  0  0  0  0
   17.6030  134.4842   -5.5634 H   0  0  0  0  0  0  0  0  0  0  0  0
   19.4142  136.6773   -2.6835 H   0  0  0  0  0  0  0  0  0  0  0  0
   20.0347  139.2760   -0.0009 H   0  0  0  0  0  0  0  0  0  0  0  0
   18.6791  138.6552   -0.6669 H   0  0  0  0  0  0  0  0  0  0  0  0
   19.7699  137.6651    0.0377 H   0  0  0  0  0  0  0  0  0  0  0  0
   21.7482  139.9260   -1.7439 H   0  0  0  0  0  0  0  0  0  0  0  0
  1  2  1  0  0  0  0
  2  3  1  0  0  0  0
  3  4  2  0  0  0  0
  3  5  1  0  0  0  0
  5  6  1  0  0  0  0
  6  7  1  0  0  0  0
  7  8  1  0  0  0  0
  8  9  1  0  0  0  0
  9 10  2  0  0  0  0
 10 11  1  0  0  0  0
 11 12  1  0  0  0  0
 12 13  2  0  0  0  0
 13 14  1  0  0  0  0
 14 15  2  0  0  0  0
 15 16  1  0  0  0  0
 16 17  2  0  0  0  0
 11 18  2  0  0  0  0
 18 19  1  0  0  0  0
 19 20  2  0  0  0  0
 20 21  1  0  0  0  0
 21 22  1  0  0  0  0
 22 23  1  0  0  0  0
 23 24  2  0  0  0  0
 24 25  1  0  0  0  0
 25 26  2  0  0  0  0
 26 27  1  0  0  0  0
 27 28  1  0  0  0  0
 21 29  1  0  0  0  0
  6 30  1  0  0  0  0
 30 31  2  0  0  0  0
 30 32  2  0  0  0  0
 30 33  1  0  0  0  0
 33 34  2  0  0  0  0
 34 35  1  0  0  0  0
 35 36  1  0  0  0  0
 35 37  1  0  0  0  0
 37 38  2  0  0  0  0
 29  7  1  0  0  0  0
 38 33  1  0  0  0  0
 20  9  1  0  0  0  0
 27 23  1  0  0  0  0
 17 12  1  0  0  0  0
  1 39  1  0  0  0  0
  1 40  1  0  0  0  0
  1 41  1  0  0  0  0
  5 42  1  0  0  0  0
  5 43  1  0  0  0  0
  7 44  1  0  0  0  0
  8 45  1  0  0  0  0
  8 46  1  0  0  0  0
 10 47  1  0  0  0  0
 13 48  1  0  0  0  0
 14 49  1  0  0  0  0
 15 50  1  0  0  0  0
 16 51  1  0  0  0  0
 17 52  1  0  0  0  0
 18 53  1  0  0  0  0
 19 54  1  0  0  0  0
 22 55  1  0  0  0  0
 22 56  1  0  0  0  0
 24 57  1  0  0  0  0
 26 58  1  0  0  0  0
 28 59  1  0  0  0  0
 28 60  1  0  0  0  0
 28 61  1  0  0  0  0
 29 62  1  0  0  0  0
 29 63  1  0  0  0  0
 34 64  1  0  0  0  0
 36 65  1  0  0  0  0
 36 66  1  0  0  0  0
 36 67  1  0  0  0  0
 37 68  1  0  0  0  0
M  END
>  <docking-score>
-21.59

$$$$
