1JCQ_739_1
foFlexX   03192112233D 1   1.00000     0.00000     0
FlexX 4.5.0 fol007
 74 74  0  0  0  0            999 V2000
   17.3678  135.8838    1.8581 C   0  0  0  0  0  0  0  0  0  0  0  0
   18.4183  134.7849    2.0219 C   0  0  0  0  0  0  0  0  0  0  0  0
   19.7122  135.0760    1.2054 C   0  0  1  0  0  0  0  0  0  0  0  0
   20.2493  136.4647    1.6093 C   0  0  0  0  0  0  0  0  0  0  0  0
   20.7660  133.9279    1.3980 C   0  0  2  0  0  0  0  0  0  0  0  0
   20.1151  132.5259    1.5982 C   0  0  0  0  0  0  0  0  0  0  0  0
   18.8338  132.4481    0.9941 O   0  0  0  0  0  0  0  0  0  0  0  0
   18.8973  132.6823   -0.4051 C   0  0  2  0  0  0  0  0  0  0  0  0
   17.6099  132.1502   -1.0678 C   0  0  0  0  0  0  0  0  0  0  0  0
   17.5720  132.3494   -2.5662 C   0  0  0  0  0  0  0  0  0  0  0  0
   18.5559  131.7680   -3.3586 C   0  0  0  0  0  0  0  0  0  0  0  0
   18.5155  131.9555   -4.7361 C   0  0  0  0  0  0  0  0  0  0  0  0
   17.5041  132.7145   -5.3142 C   0  0  0  0  0  0  0  0  0  0  0  0
   16.5241  133.2926   -4.5135 C   0  0  0  0  0  0  0  0  0  0  0  0
   16.5561  133.1108   -3.1349 C   0  0  0  0  0  0  0  0  0  0  0  0
   20.1356  132.0378   -0.9902 C   0  0  0  0  0  0  0  0  0  0  0  0
   20.2809  130.7904   -0.8810 O   0  0  0  0  0  0  0  0  0  0  0  0
   21.2372  132.8202   -1.4857 N   0  0  0  0  0  0  0  0  0  0  0  0
   21.2323  133.6626   -2.6940 C   0  0  1  0  0  0  0  0  0  0  0  0
   20.0748  134.6888   -2.6841 C   0  0  0  0  0  0  0  0  0  0  0  0
   20.3716  135.9958   -3.4326 C   0  0  0  0  0  0  0  0  0  0  0  0
   21.0991  137.2134   -2.3475 S   0  0  0  0  0  0  0  0  0  0  0  0
   22.0429  136.4197   -1.0638 C   0  0  0  0  0  0  0  0  0  0  0  0
   20.0176  138.0527   -1.7274 O   0  0  0  0  0  0  0  0  0  0  0  0
   22.0106  138.0982   -3.1499 O   0  0  0  0  0  0  0  0  0  0  0  0
   22.5771  134.2644   -3.0156 C   0  0  0  0  0  0  0  0  0  0  0  0
   22.6803  135.0789   -3.9706 O   0  0  0  0  0  0  0  0  0  0  0  0
   23.7034  133.9674   -2.2581 O   0  5  0  0  0  0  0  0  0  0  0  0
   21.6557  134.2214    2.5559 N   0  3  0  0  0  0  0  0  0  0  0  0
   21.1101  133.6704    3.8121 C   0  0  0  0  0  0  0  0  0  0  0  0
   20.1860  134.6747    4.5475 C   0  0  1  0  0  0  0  0  0  0  0  0
   19.6721  134.0766    5.7877 N   0  3  0  0  0  0  0  0  0  0  0  0
   20.8561  136.0397    4.8320 C   0  0  0  0  0  0  0  0  0  0  0  0
   20.1396  136.8917    6.2293 S   0  0  0  0  0  0  0  0  0  0  0  0
   17.1141  135.9614    0.8939 H   0  0  0  0  0  0  0  0  0  0  0  0
   16.5582  135.6542    2.3984 H   0  0  0  0  0  0  0  0  0  0  0  0
   17.7440  136.7545    2.1749 H   0  0  0  0  0  0  0  0  0  0  0  0
   18.0288  133.9187    1.7088 H   0  0  0  0  0  0  0  0  0  0  0  0
   18.6587  134.7117    2.9898 H   0  0  0  0  0  0  0  0  0  0  0  0
   19.4655  135.1098    0.2369 H   0  0  0  0  0  0  0  0  0  0  0  0
   21.0472  136.6892    1.0499 H   0  0  0  0  0  0  0  0  0  0  0  0
   19.5374  137.1522    1.4655 H   0  0  0  0  0  0  0  0  0  0  0  0
   20.5113  136.4530    2.5743 H   0  0  0  0  0  0  0  0  0  0  0  0
   21.3335  133.8894    0.5755 H   0  0  0  0  0  0  0  0  0  0  0  0
   20.0222  132.3492    2.5781 H   0  0  0  0  0  0  0  0  0  0  0  0
   20.7083  131.8324    1.1893 H   0  0  0  0  0  0  0  0  0  0  0  0
   18.9496  133.6689   -0.5598 H   0  0  0  0  0  0  0  0  0  0  0  0
   16.8277  132.6263   -0.6659 H   0  0  0  0  0  0  0  0  0  0  0  0
   17.5380  131.1711   -0.8773 H   0  0  0  0  0  0  0  0  0  0  0  0
   19.2834  131.2219   -2.9431 H   0  0  0  0  0  0  0  0  0  0  0  0
   19.2185  131.5418   -5.3146 H   0  0  0  0  0  0  0  0  0  0  0  0
   17.4810  132.8447   -6.3054 H   0  0  0  0  0  0  0  0  0  0  0  0
   15.7969  133.8389   -4.9292 H   0  0  0  0  0  0  0  0  0  0  0  0
   15.8533  133.5247   -2.5563 H   0  0  0  0  0  0  0  0  0  0  0  0
   22.0870  132.7891   -0.9595 H   0  0  0  0  0  0  0  0  0  0  0  0
   21.0308  133.0411   -3.4511 H   0  0  0  0  0  0  0  0  0  0  0  0
   19.8669  134.9149   -1.7325 H   0  0  0  0  0  0  0  0  0  0  0  0
   19.2759  134.2617   -3.1075 H   0  0  0  0  0  0  0  0  0  0  0  0
   19.5175  136.3596   -3.8044 H   0  0  0  0  0  0  0  0  0  0  0  0
   21.0067  135.8056   -4.1813 H   0  0  0  0  0  0  0  0  0  0  0  0
   21.4401  135.8373   -0.5185 H   0  0  0  0  0  0  0  0  0  0  0  0
   22.7626  135.8611   -1.4761 H   0  0  0  0  0  0  0  0  0  0  0  0
   22.4562  137.1149   -0.4756 H   0  0  0  0  0  0  0  0  0  0  0  0
   21.7500  135.2125    2.6499 H   0  0  0  0  0  0  0  0  0  0  0  0
   22.5538  133.8157    2.3863 H   0  0  0  0  0  0  0  0  0  0  0  0
   21.8713  133.4334    4.4158 H   0  0  0  0  0  0  0  0  0  0  0  0
   20.5843  132.8468    3.5996 H   0  0  0  0  0  0  0  0  0  0  0  0
   19.4008  134.8469    3.9526 H   0  0  0  0  0  0  0  0  0  0  0  0
   18.7290  134.3745    5.9356 H   0  0  0  0  0  0  0  0  0  0  0  0
   19.6990  133.0797    5.7132 H   0  0  0  0  0  0  0  0  0  0  0  0
   20.2386  134.3686    6.5583 H   0  0  0  0  0  0  0  0  0  0  0  0
   20.7581  136.6177    4.0219 H   0  0  0  0  0  0  0  0  0  0  0  0
   21.8269  135.8858    5.0162 H   0  0  0  0  0  0  0  0  0  0  0  0
   20.2381  136.3282    7.0496 H   0  0  0  0  0  0  0  0  0  0  0  0
  1  2  1  0  0  0  0
  2  3  1  0  0  0  0
  3  4  1  0  0  0  0
  3  5  1  0  0  0  0
  5  6  1  0  0  0  0
  6  7  1  0  0  0  0
  7  8  1  0  0  0  0
  8  9  1  0  0  0  0
  9 10  1  0  0  0  0
 10 11  2  0  0  0  0
 11 12  1  0  0  0  0
 12 13  2  0  0  0  0
 13 14  1  0  0  0  0
 14 15  2  0  0  0  0
  8 16  1  0  0  0  0
 16 17  2  0  0  0  0
 16 18  1  0  0  0  0
 18 19  1  0  0  0  0
 19 20  1  0  0  0  0
 20 21  1  0  0  0  0
 21 22  1  0  0  0  0
 22 23  1  0  0  0  0
 22 24  2  0  0  0  0
 22 25  2  0  0  0  0
 19 26  1  0  0  0  0
 26 27  2  0  0  0  0
 26 28  1  0  0  0  0
  5 29  1  0  0  0  0
 29 30  1  0  0  0  0
 30 31  1  0  0  0  0
 31 32  1  0  0  0  0
 31 33  1  0  0  0  0
 33 34  1  0  0  0  0
 15 10  1  0  0  0  0
  1 35  1  0  0  0  0
  1 36  1  0  0  0  0
  1 37  1  0  0  0  0
  2 38  1  0  0  0  0
  2 39  1  0  0  0  0
  3 40  1  0  0  0  0
  4 41  1  0  0  0  0
  4 42  1  0  0  0  0
  4 43  1  0  0  0  0
  5 44  1  0  0  0  0
  6 45  1  0  0  0  0
  6 46  1  0  0  0  0
  8 47  1  0  0  0  0
  9 48  1  0  0  0  0
  9 49  1  0  0  0  0
 11 50  1  0  0  0  0
 12 51  1  0  0  0  0
 13 52  1  0  0  0  0
 14 53  1  0  0  0  0
 15 54  1  0  0  0  0
 18 55  1  0  0  0  0
 19 56  1  0  0  0  0
 20 57  1  0  0  0  0
 20 58  1  0  0  0  0
 21 59  1  0  0  0  0
 21 60  1  0  0  0  0
 23 61  1  0  0  0  0
 23 62  1  0  0  0  0
 23 63  1  0  0  0  0
 29 64  1  0  0  0  0
 29 65  1  0  0  0  0
 30 66  1  0  0  0  0
 30 67  1  0  0  0  0
 31 68  1  0  0  0  0
 32 69  1  0  0  0  0
 32 70  1  0  0  0  0
 32 71  1  0  0  0  0
 33 72  1  0  0  0  0
 33 73  1  0  0  0  0
 34 74  1  0  0  0  0
M  CHG  3  28  -1  29   1  32   1
M  END
>  <docking-score>
-27.74

$$$$
1JCQ_739_2
foFlexX   03192112233D 1   1.00000     0.00000     0
FlexX 4.5.0 fol007
 74 74  0  0  0  0            999 V2000
   17.4180  135.9192    1.6716 C   0  0  0  0  0  0  0  0  0  0  0  0
   18.4656  134.8212    1.8584 C   0  0  0  0  0  0  0  0  0  0  0  0
   19.7664  135.0997    1.0483 C   0  0  1  0  0  0  0  0  0  0  0  0
   20.3021  136.4930    1.4378 C   0  0  0  0  0  0  0  0  0  0  0  0
   20.8169  133.9529    1.2647 C   0  0  2  0  0  0  0  0  0  0  0  0
   20.1626  132.5545    1.4786 C   0  0  0  0  0  0  0  0  0  0  0  0
   18.8860  132.4703    0.8654 O   0  0  0  0  0  0  0  0  0  0  0  0
   18.9608  132.6856   -0.5362 C   0  0  2  0  0  0  0  0  0  0  0  0
   17.6780  132.1463   -1.2019 C   0  0  0  0  0  0  0  0  0  0  0  0
   17.6522  132.3254   -2.7031 C   0  0  0  0  0  0  0  0  0  0  0  0
   18.6415  131.7321   -3.4798 C   0  0  0  0  0  0  0  0  0  0  0  0
   18.6123  131.9012   -4.8600 C   0  0  0  0  0  0  0  0  0  0  0  0
   17.6065  132.6536   -5.4562 C   0  0  0  0  0  0  0  0  0  0  0  0
   16.6210  133.2437   -4.6712 C   0  0  0  0  0  0  0  0  0  0  0  0
   16.6418  133.0804   -3.2901 C   0  0  0  0  0  0  0  0  0  0  0  0
   20.2028  132.0317   -1.1028 C   0  0  0  0  0  0  0  0  0  0  0  0
   20.3454  130.7857   -0.9757 O   0  0  0  0  0  0  0  0  0  0  0  0
   21.3094  132.8060   -1.6000 N   0  0  0  0  0  0  0  0  0  0  0  0
   21.3152  133.6320   -2.8196 C   0  0  1  0  0  0  0  0  0  0  0  0
   20.1592  134.6598   -2.8326 C   0  0  0  0  0  0  0  0  0  0  0  0
   19.6423  135.0242   -4.2314 C   0  0  0  0  0  0  0  0  0  0  0  0
   20.5288  136.4197   -4.9067 S   0  0  0  0  0  0  0  0  0  0  0  0
   19.4807  137.3538   -6.0009 C   0  0  0  0  0  0  0  0  0  0  0  0
   21.7366  135.9383   -5.6605 O   0  0  0  0  0  0  0  0  0  0  0  0
   20.9733  137.3066   -3.7783 O   0  0  0  0  0  0  0  0  0  0  0  0
   22.6633  134.2276   -3.1385 C   0  0  0  0  0  0  0  0  0  0  0  0
   22.7752  135.0292   -4.1035 O   0  0  0  0  0  0  0  0  0  0  0  0
   23.7832  133.9395   -2.3682 O   0  5  0  0  0  0  0  0  0  0  0  0
   21.6978  134.2608    2.4256 N   0  3  0  0  0  0  0  0  0  0  0  0
   21.1416  133.7274    3.6847 C   0  0  0  0  0  0  0  0  0  0  0  0
   20.2131  134.7427    4.3992 C   0  0  1  0  0  0  0  0  0  0  0  0
   19.6886  134.1620    5.6432 N   0  3  0  0  0  0  0  0  0  0  0  0
   20.8829  136.1105    4.6706 C   0  0  0  0  0  0  0  0  0  0  0  0
   20.1565  136.9822    6.0506 S   0  0  0  0  0  0  0  0  0  0  0  0
   17.1720  135.9842    0.7045 H   0  0  0  0  0  0  0  0  0  0  0  0
   16.6038  135.6979    2.2084 H   0  0  0  0  0  0  0  0  0  0  0  0
   17.7929  136.7936    1.9796 H   0  0  0  0  0  0  0  0  0  0  0  0
   18.0774  133.9514    1.5539 H   0  0  0  0  0  0  0  0  0  0  0  0
   18.6983  134.7608    2.8291 H   0  0  0  0  0  0  0  0  0  0  0  0
   19.5274  135.1208    0.0775 H   0  0  0  0  0  0  0  0  0  0  0  0
   21.1048  136.7089    0.8818 H   0  0  0  0  0  0  0  0  0  0  0  0
   19.5924  137.1794    1.2791 H   0  0  0  0  0  0  0  0  0  0  0  0
   20.5565  136.4940    2.4049 H   0  0  0  0  0  0  0  0  0  0  0  0
   21.3908  133.9026    0.4473 H   0  0  0  0  0  0  0  0  0  0  0  0
   20.0616  132.3912    2.4600 H   0  0  0  0  0  0  0  0  0  0  0  0
   20.7580  131.8549    1.0837 H   0  0  0  0  0  0  0  0  0  0  0  0
   19.0157  133.6700   -0.7038 H   0  0  0  0  0  0  0  0  0  0  0  0
   16.8933  132.6288   -0.8127 H   0  0  0  0  0  0  0  0  0  0  0  0
   17.6032  131.1700   -0.9989 H   0  0  0  0  0  0  0  0  0  0  0  0
   19.3649  131.1908   -3.0513 H   0  0  0  0  0  0  0  0  0  0  0  0
   19.3192  131.4788   -5.4273 H   0  0  0  0  0  0  0  0  0  0  0  0
   17.5915  132.7705   -6.4492 H   0  0  0  0  0  0  0  0  0  0  0  0
   15.8979  133.7853   -5.0999 H   0  0  0  0  0  0  0  0  0  0  0  0
   15.9351  133.5030   -2.7227 H   0  0  0  0  0  0  0  0  0  0  0  0
   22.1550  132.7808   -1.0667 H   0  0  0  0  0  0  0  0  0  0  0  0
   21.1188  133.0007   -3.5698 H   0  0  0  0  0  0  0  0  0  0  0  0
   20.4816  135.4973   -2.3915 H   0  0  0  0  0  0  0  0  0  0  0  0
   19.3975  134.2789   -2.3083 H   0  0  0  0  0  0  0  0  0  0  0  0
   18.6709  135.2539   -4.1703 H   0  0  0  0  0  0  0  0  0  0  0  0
   19.7614  134.2381   -4.8379 H   0  0  0  0  0  0  0  0  0  0  0  0
   19.1898  136.7725   -6.7608 H   0  0  0  0  0  0  0  0  0  0  0  0
   18.6769  137.6743   -5.4997 H   0  0  0  0  0  0  0  0  0  0  0  0
   19.9866  138.1395   -6.3570 H   0  0  0  0  0  0  0  0  0  0  0  0
   21.7928  135.2529    2.5070 H   0  0  0  0  0  0  0  0  0  0  0  0
   22.5967  133.8516    2.2686 H   0  0  0  0  0  0  0  0  0  0  0  0
   21.8977  133.4976    4.2975 H   0  0  0  0  0  0  0  0  0  0  0  0
   20.6163  132.9017    3.4791 H   0  0  0  0  0  0  0  0  0  0  0  0
   19.4329  134.9080    3.7959 H   0  0  0  0  0  0  0  0  0  0  0  0
   18.7448  134.4631    5.7796 H   0  0  0  0  0  0  0  0  0  0  0  0
   19.7146  133.1642    5.5823 H   0  0  0  0  0  0  0  0  0  0  0  0
   20.2494  134.4636    6.4143 H   0  0  0  0  0  0  0  0  0  0  0  0
   20.7921  136.6778    3.8521 H   0  0  0  0  0  0  0  0  0  0  0  0
   21.8519  135.9579    4.8646 H   0  0  0  0  0  0  0  0  0  0  0  0
   20.2478  136.4297    6.8792 H   0  0  0  0  0  0  0  0  0  0  0  0
  1  2  1  0  0  0  0
  2  3  1  0  0  0  0
  3  4  1  0  0  0  0
  3  5  1  0  0  0  0
  5  6  1  0  0  0  0
  6  7  1  0  0  0  0
  7  8  1  0  0  0  0
  8  9  1  0  0  0  0
  9 10  1  0  0  0  0
 10 11  2  0  0  0  0
 11 12  1  0  0  0  0
 12 13  2  0  0  0  0
 13 14  1  0  0  0  0
 14 15  2  0  0  0  0
  8 16  1  0  0  0  0
 16 17  2  0  0  0  0
 16 18  1  0  0  0  0
 18 19  1  0  0  0  0
 19 20  1  0  0  0  0
 20 21  1  0  0  0  0
 21 22  1  0  0  0  0
 22 23  1  0  0  0  0
 22 24  2  0  0  0  0
 22 25  2  0  0  0  0
 19 26  1  0  0  0  0
 26 27  2  0  0  0  0
 26 28  1  0  0  0  0
  5 29  1  0  0  0  0
 29 30  1  0  0  0  0
 30 31  1  0  0  0  0
 31 32  1  0  0  0  0
 31 33  1  0  0  0  0
 33 34  1  0  0  0  0
 15 10  1  0  0  0  0
  1 35  1  0  0  0  0
  1 36  1  0  0  0  0
  1 37  1  0  0  0  0
  2 38  1  0  0  0  0
  2 39  1  0  0  0  0
  3 40  1  0  0  0  0
  4 41  1  0  0  0  0
  4 42  1  0  0  0  0
  4 43  1  0  0  0  0
  5 44  1  0  0  0  0
  6 45  1  0  0  0  0
  6 46  1  0  0  0  0
  8 47  1  0  0  0  0
  9 48  1  0  0  0  0
  9 49  1  0  0  0  0
 11 50  1  0  0  0  0
 12 51  1  0  0  0  0
 13 52  1  0  0  0  0
 14 53  1  0  0  0  0
 15 54  1  0  0  0  0
 18 55  1  0  0  0  0
 19 56  1  0  0  0  0
 20 57  1  0  0  0  0
 20 58  1  0  0  0  0
 21 59  1  0  0  0  0
 21 60  1  0  0  0  0
 23 61  1  0  0  0  0
 23 62  1  0  0  0  0
 23 63  1  0  0  0  0
 29 64  1  0  0  0  0
 29 65  1  0  0  0  0
 30 66  1  0  0  0  0
 30 67  1  0  0  0  0
 31 68  1  0  0  0  0
 32 69  1  0  0  0  0
 32 70  1  0  0  0  0
 32 71  1  0  0  0  0
 33 72  1  0  0  0  0
 33 73  1  0  0  0  0
 34 74  1  0  0  0  0
M  CHG  3  28  -1  29   1  32   1
M  END
>  <docking-score>
-27.54

$$$$
1JCQ_739_3
foFlexX   03192112233D 1   1.00000     0.00000     0
FlexX 4.5.0 fol007
 74 74  0  0  0  0            999 V2000
   21.2983  139.3462   -1.4837 C   0  0  0  0  0  0  0  0  0  0  0  0
   22.4764  139.3387   -0.5089 C   0  0  0  0  0  0  0  0  0  0  0  0
   22.2223  138.4164    0.7201 C   0  0  1  0  0  0  0  0  0  0  0  0
   20.7250  138.4825    1.0861 C   0  0  0  0  0  0  0  0  0  0  0  0
   22.7236  136.9555    0.4370 C   0  0  2  0  0  0  0  0  0  0  0  0
   21.6511  136.0634   -0.2582 C   0  0  0  0  0  0  0  0  0  0  0  0
   22.2391  135.1311   -1.1514 O   0  0  0  0  0  0  0  0  0  0  0  0
   21.3727  134.8211   -2.2330 C   0  0  2  0  0  0  0  0  0  0  0  0
   21.0340  133.3165   -2.1969 C   0  0  0  0  0  0  0  0  0  0  0  0
   20.3451  132.8802   -0.9236 C   0  0  0  0  0  0  0  0  0  0  0  0
   19.3786  133.7013   -0.3529 C   0  0  0  0  0  0  0  0  0  0  0  0
   18.7492  133.2942    0.8187 C   0  0  0  0  0  0  0  0  0  0  0  0
   19.0815  132.0815    1.4120 C   0  0  0  0  0  0  0  0  0  0  0  0
   20.0499  131.2667    0.8340 C   0  0  0  0  0  0  0  0  0  0  0  0
   20.6850  131.6651   -0.3375 C   0  0  0  0  0  0  0  0  0  0  0  0
   22.0091  135.2202   -3.5471 C   0  0  0  0  0  0  0  0  0  0  0  0
   23.1083  134.6960   -3.8743 O   0  0  0  0  0  0  0  0  0  0  0  0
   21.5058  136.3158   -4.3331 N   0  0  0  0  0  0  0  0  0  0  0  0
   20.2268  136.3477   -5.0630 C   0  0  1  0  0  0  0  0  0  0  0  0
   19.0249  136.0172   -4.1470 C   0  0  0  0  0  0  0  0  0  0  0  0
   17.8466  135.3365   -4.8575 C   0  0  0  0  0  0  0  0  0  0  0  0
   16.2937  135.7489   -4.0779 S   0  0  0  0  0  0  0  0  0  0  0  0
   15.9068  134.5732   -2.7987 C   0  0  0  0  0  0  0  0  0  0  0  0
   15.1950  135.7525   -5.1033 O   0  0  0  0  0  0  0  0  0  0  0  0
   16.4033  137.1179   -3.4683 O   0  0  0  0  0  0  0  0  0  0  0  0
   20.0363  137.5926   -5.8924 C   0  0  0  0  0  0  0  0  0  0  0  0
   19.7517  138.6798   -5.3239 O   0  0  0  0  0  0  0  0  0  0  0  0
   20.2026  137.5765   -7.2717 O   0  5  0  0  0  0  0  0  0  0  0  0
   23.1606  136.2970    1.6994 N   0  3  0  0  0  0  0  0  0  0  0  0
   22.0580  136.2145    2.6776 C   0  0  0  0  0  0  0  0  0  0  0  0
   21.7251  134.7530    3.0732 C   0  0  1  0  0  0  0  0  0  0  0  0
   22.9015  134.1100    3.6755 N   0  3  0  0  0  0  0  0  0  0  0  0
   20.4942  134.6273    4.0017 C   0  0  0  0  0  0  0  0  0  0  0  0
   19.5352  133.1517    3.6942 S   0  0  0  0  0  0  0  0  0  0  0  0
   20.4792  139.6755   -1.0141 H   0  0  0  0  0  0  0  0  0  0  0  0
   21.5065  139.9495   -2.2535 H   0  0  0  0  0  0  0  0  0  0  0  0
   21.1389  138.4184   -1.8210 H   0  0  0  0  0  0  0  0  0  0  0  0
   22.6307  140.2718   -0.1841 H   0  0  0  0  0  0  0  0  0  0  0  0
   23.2904  139.0146   -0.9910 H   0  0  0  0  0  0  0  0  0  0  0  0
   22.7453  138.7786    1.4917 H   0  0  0  0  0  0  0  0  0  0  0  0
   20.5590  137.9404    1.9099 H   0  0  0  0  0  0  0  0  0  0  0  0
   20.4647  139.4332    1.2546 H   0  0  0  0  0  0  0  0  0  0  0  0
   20.1809  138.1167    0.3311 H   0  0  0  0  0  0  0  0  0  0  0  0
   23.5161  137.0141   -0.1702 H   0  0  0  0  0  0  0  0  0  0  0  0
   21.0241  136.6507   -0.7700 H   0  0  0  0  0  0  0  0  0  0  0  0
   21.1424  135.5635    0.4427 H   0  0  0  0  0  0  0  0  0  0  0  0
   20.5254  135.3401   -2.1200 H   0  0  0  0  0  0  0  0  0  0  0  0
   21.8846  132.7989   -2.2893 H   0  0  0  0  0  0  0  0  0  0  0  0
   20.4324  133.1096   -2.9685 H   0  0  0  0  0  0  0  0  0  0  0  0
   19.1392  134.5735   -0.7794 H   0  0  0  0  0  0  0  0  0  0  0  0
   18.0530  133.8775    1.2371 H   0  0  0  0  0  0  0  0  0  0  0  0
   18.6246  131.7949    2.2540 H   0  0  0  0  0  0  0  0  0  0  0  0
   20.2894  130.3946    1.2609 H   0  0  0  0  0  0  0  0  0  0  0  0
   21.3814  131.0820   -0.7558 H   0  0  0  0  0  0  0  0  0  0  0  0
   22.0791  137.1332   -4.3890 H   0  0  0  0  0  0  0  0  0  0  0  0
   20.2761  135.5951   -5.7197 H   0  0  0  0  0  0  0  0  0  0  0  0
   18.6951  136.8715   -3.7451 H   0  0  0  0  0  0  0  0  0  0  0  0
   19.3445  135.4087   -3.4207 H   0  0  0  0  0  0  0  0  0  0  0  0
   17.9747  134.3453   -4.8244 H   0  0  0  0  0  0  0  0  0  0  0  0
   17.8227  135.6379   -5.8107 H   0  0  0  0  0  0  0  0  0  0  0  0
   15.8214  133.6609   -3.1992 H   0  0  0  0  0  0  0  0  0  0  0  0
   16.6377  134.5706   -2.1162 H   0  0  0  0  0  0  0  0  0  0  0  0
   15.0439  134.8276   -2.3621 H   0  0  0  0  0  0  0  0  0  0  0  0
   23.9100  136.8252    2.0986 H   0  0  0  0  0  0  0  0  0  0  0  0
   23.4788  135.3724    1.4901 H   0  0  0  0  0  0  0  0  0  0  0  0
   21.2423  136.6325    2.2777 H   0  0  0  0  0  0  0  0  0  0  0  0
   22.3210  136.7178    3.5007 H   0  0  0  0  0  0  0  0  0  0  0  0
   21.5140  134.2575    2.2306 H   0  0  0  0  0  0  0  0  0  0  0  0
   22.6061  133.3507    4.2553 H   0  0  0  0  0  0  0  0  0  0  0  0
   23.4993  133.7642    2.9523 H   0  0  0  0  0  0  0  0  0  0  0  0
   23.3996  134.7777    4.2288 H   0  0  0  0  0  0  0  0  0  0  0  0
   19.9066  135.4242    3.8615 H   0  0  0  0  0  0  0  0  0  0  0  0
   20.8110  134.6095    4.9501 H   0  0  0  0  0  0  0  0  0  0  0  0
   19.6148  132.8972    2.7304 H   0  0  0  0  0  0  0  0  0  0  0  0
  1  2  1  0  0  0  0
  2  3  1  0  0  0  0
  3  4  1  0  0  0  0
  3  5  1  0  0  0  0
  5  6  1  0  0  0  0
  6  7  1  0  0  0  0
  7  8  1  0  0  0  0
  8  9  1  0  0  0  0
  9 10  1  0  0  0  0
 10 11  2  0  0  0  0
 11 12  1  0  0  0  0
 12 13  2  0  0  0  0
 13 14  1  0  0  0  0
 14 15  2  0  0  0  0
  8 16  1  0  0  0  0
 16 17  2  0  0  0  0
 16 18  1  0  0  0  0
 18 19  1  0  0  0  0
 19 20  1  0  0  0  0
 20 21  1  0  0  0  0
 21 22  1  0  0  0  0
 22 23  1  0  0  0  0
 22 24  2  0  0  0  0
 22 25  2  0  0  0  0
 19 26  1  0  0  0  0
 26 27  2  0  0  0  0
 26 28  1  0  0  0  0
  5 29  1  0  0  0  0
 29 30  1  0  0  0  0
 30 31  1  0  0  0  0
 31 32  1  0  0  0  0
 31 33  1  0  0  0  0
 33 34  1  0  0  0  0
 15 10  1  0  0  0  0
  1 35  1  0  0  0  0
  1 36  1  0  0  0  0
  1 37  1  0  0  0  0
  2 38  1  0  0  0  0
  2 39  1  0  0  0  0
  3 40  1  0  0  0  0
  4 41  1  0  0  0  0
  4 42  1  0  0  0  0
  4 43  1  0  0  0  0
  5 44  1  0  0  0  0
  6 45  1  0  0  0  0
  6 46  1  0  0  0  0
  8 47  1  0  0  0  0
  9 48  1  0  0  0  0
  9 49  1  0  0  0  0
 11 50  1  0  0  0  0
 12 51  1  0  0  0  0
 13 52  1  0  0  0  0
 14 53  1  0  0  0  0
 15 54  1  0  0  0  0
 18 55  1  0  0  0  0
 19 56  1  0  0  0  0
 20 57  1  0  0  0  0
 20 58  1  0  0  0  0
 21 59  1  0  0  0  0
 21 60  1  0  0  0  0
 23 61  1  0  0  0  0
 23 62  1  0  0  0  0
 23 63  1  0  0  0  0
 29 64  1  0  0  0  0
 29 65  1  0  0  0  0
 30 66  1  0  0  0  0
 30 67  1  0  0  0  0
 31 68  1  0  0  0  0
 32 69  1  0  0  0  0
 32 70  1  0  0  0  0
 32 71  1  0  0  0  0
 33 72  1  0  0  0  0
 33 73  1  0  0  0  0
 34 74  1  0  0  0  0
M  CHG  3  28  -1  29   1  32   1
M  END
>  <docking-score>
-25.04

$$$$
1SA4_JAN_1
foFlexX   03192112233D 1   1.00000     0.00000     0
FlexX 4.5.0 fol007
 57 61  0  0  0  0            999 V2000
   14.1319  134.2539   -5.4172 C   0  0  0  0  0  0  0  0  0  0  0  0
   14.3019  133.8690   -4.0084 N   0  0  0  0  0  0  0  0  0  0  0  0
   13.8522  132.7100   -3.4461 C   0  0  0  0  0  0  0  0  0  0  0  0
   14.1926  132.7217   -2.1761 N   0  0  0  0  0  0  0  0  0  0  0  0
   14.8615  133.8827   -1.9086 C   0  0  0  0  0  0  0  0  0  0  0  0
   14.9342  134.6122   -3.0592 C   0  0  0  0  0  0  0  0  0  0  0  0
   15.6022  135.9905   -3.2415 C   0  0  1  0  0  0  0  0  0  0  0  0
   14.8491  136.6578   -4.3295 N   0  3  0  0  0  0  0  0  0  0  0  0
   15.5650  136.7958   -1.9260 C   0  0  0  0  0  0  0  0  0  0  0  0
   16.5606  137.7348   -1.6742 C   0  0  0  0  0  0  0  0  0  0  0  0
   16.5409  138.4698   -0.4934 C   0  0  0  0  0  0  0  0  0  0  0  0
   15.5187  138.2516    0.4237 C   0  0  0  0  0  0  0  0  0  0  0  0
   15.4793  139.1839    1.9397 Cl  0  0  0  0  0  0  0  0  0  0  0  0
   14.5229  137.3139    0.1736 C   0  0  0  0  0  0  0  0  0  0  0  0
   14.5435  136.5795   -1.0075 C   0  0  0  0  0  0  0  0  0  0  0  0
   17.0620  135.8596   -3.6240 C   0  0  0  0  0  0  0  0  0  0  0  0
   17.5033  136.3762   -4.8344 C   0  0  0  0  0  0  0  0  0  0  0  0
   18.8502  136.2319   -5.1393 C   0  0  0  0  0  0  0  0  0  0  0  0
   19.7254  135.5939   -4.2660 C   0  0  0  0  0  0  0  0  0  0  0  0
   19.2485  135.0895   -3.0641 C   0  0  0  0  0  0  0  0  0  0  0  0
   17.9052  135.2177   -2.7298 C   0  0  0  0  0  0  0  0  0  0  0  0
   20.1621  134.4172   -2.1558 C   0  0  0  0  0  0  0  0  0  0  0  0
   19.7068  133.8676   -0.8920 C   0  0  0  0  0  0  0  0  0  0  0  0
   19.1374  134.7129    0.0543 C   0  0  0  0  0  0  0  0  0  0  0  0
   18.7037  134.1779    1.2631 C   0  0  0  0  0  0  0  0  0  0  0  0
   18.8332  132.8192    1.5308 C   0  0  0  0  0  0  0  0  0  0  0  0
   19.4058  131.9926    0.5696 C   0  0  0  0  0  0  0  0  0  0  0  0
   19.5817  130.2512    0.8933 Cl  0  0  0  0  0  0  0  0  0  0  0  0
   19.8470  132.5059   -0.6457 C   0  0  0  0  0  0  0  0  0  0  0  0
   21.4455  134.2684   -2.4297 C   0  0  0  0  0  0  0  0  0  0  0  0
   21.9627  134.7927   -3.6790 C   0  0  0  0  0  0  0  0  0  0  0  0
   23.1490  134.6559   -3.9320 O   0  0  0  0  0  0  0  0  0  0  0  0
   21.0863  135.4405   -4.5601 N   0  0  0  0  0  0  0  0  0  0  0  0
   21.6615  135.9506   -5.8161 C   0  0  0  0  0  0  0  0  0  0  0  0
   14.5530  135.1476   -5.5718 H   0  0  0  0  0  0  0  0  0  0  0  0
   14.5701  133.5729   -6.0040 H   0  0  0  0  0  0  0  0  0  0  0  0
   13.1569  134.3028   -5.6341 H   0  0  0  0  0  0  0  0  0  0  0  0
   13.3531  131.9819   -3.9159 H   0  0  0  0  0  0  0  0  0  0  0  0
   15.2343  134.1518   -1.0206 H   0  0  0  0  0  0  0  0  0  0  0  0
   14.5019  135.9688   -4.9657 H   0  0  0  0  0  0  0  0  0  0  0  0
   14.0824  137.1681   -3.9398 H   0  0  0  0  0  0  0  0  0  0  0  0
   15.4547  137.2867   -4.8170 H   0  0  0  0  0  0  0  0  0  0  0  0
   17.2902  137.8813   -2.3421 H   0  0  0  0  0  0  0  0  0  0  0  0
   17.2530  139.1466   -0.3064 H   0  0  0  0  0  0  0  0  0  0  0  0
   13.7932  137.1677    0.8416 H   0  0  0  0  0  0  0  0  0  0  0  0
   13.8311  135.9030   -1.1942 H   0  0  0  0  0  0  0  0  0  0  0  0
   16.8751  136.8349   -5.4629 H   0  0  0  0  0  0  0  0  0  0  0  0
   19.1982  136.5938   -6.0041 H   0  0  0  0  0  0  0  0  0  0  0  0
   17.5556  134.8559   -1.8656 H   0  0  0  0  0  0  0  0  0  0  0  0
   19.0411  135.6908   -0.1314 H   0  0  0  0  0  0  0  0  0  0  0  0
   18.2931  134.7785    1.9491 H   0  0  0  0  0  0  0  0  0  0  0  0
   18.5192  132.4418    2.4020 H   0  0  0  0  0  0  0  0  0  0  0  0
   20.2585  131.9054   -1.3313 H   0  0  0  0  0  0  0  0  0  0  0  0
   22.0513  133.8013   -1.7856 H   0  0  0  0  0  0  0  0  0  0  0  0
   20.9434  136.3863   -6.3588 H   0  0  0  0  0  0  0  0  0  0  0  0
   22.3748  136.6200   -5.6083 H   0  0  0  0  0  0  0  0  0  0  0  0
   22.0569  135.1921   -6.3339 H   0  0  0  0  0  0  0  0  0  0  0  0
  1  2  1  0  0  0  0
  2  3  1  0  0  0  0
  3  4  2  0  0  0  0
  4  5  1  0  0  0  0
  5  6  2  0  0  0  0
  6  7  1  0  0  0  0
  7  8  1  0  0  0  0
  7  9  1  0  0  0  0
  9 10  2  0  0  0  0
 10 11  1  0  0  0  0
 11 12  2  0  0  0  0
 12 13  1  0  0  0  0
 12 14  1  0  0  0  0
 14 15  2  0  0  0  0
  7 16  1  0  0  0  0
 16 17  2  0  0  0  0
 17 18  1  0  0  0  0
 18 19  2  0  0  0  0
 19 20  1  0  0  0  0
 20 21  2  0  0  0  0
 20 22  1  0  0  0  0
 22 23  1  0  0  0  0
 23 24  2  0  0  0  0
 24 25  1  0  0  0  0
 25 26  2  0  0  0  0
 26 27  1  0  0  0  0
 27 28  1  0  0  0  0
 27 29  2  0  0  0  0
 22 30  2  0  0  0  0
 30 31  1  0  0  0  0
 31 32  2  0  0  0  0
 31 33  1  0  0  0  0
 33 34  1  0  0  0  0
  6  2  1  0  0  0  0
 15  9  1  0  0  0  0
 21 16  1  0  0  0  0
 29 23  1  0  0  0  0
 33 19  1  0  0  0  0
  1 35  1  0  0  0  0
  1 36  1  0  0  0  0
  1 37  1  0  0  0  0
  3 38  1  0  0  0  0
  5 39  1  0  0  0  0
  8 40  1  0  0  0  0
  8 41  1  0  0  0  0
  8 42  1  0  0  0  0
 10 43  1  0  0  0  0
 11 44  1  0  0  0  0
 14 45  1  0  0  0  0
 15 46  1  0  0  0  0
 17 47  1  0  0  0  0
 18 48  1  0  0  0  0
 21 49  1  0  0  0  0
 24 50  1  0  0  0  0
 25 51  1  0  0  0  0
 26 52  1  0  0  0  0
 29 53  1  0  0  0  0
 30 54  1  0  0  0  0
 34 55  1  0  0  0  0
 34 56  1  0  0  0  0
 34 57  1  0  0  0  0
M  CHG  1   8   1
M  END
>  <docking-score>
-17.03

$$$$
1SA4_JAN_2
foFlexX   03192112233D 1   1.00000     0.00000     0
FlexX 4.5.0 fol007
 57 61  0  0  0  0            999 V2000
   20.5496  137.9881   -5.4751 C   0  0  0  0  0  0  0  0  0  0  0  0
   21.1917  136.8852   -4.7448 N   0  0  0  0  0  0  0  0  0  0  0  0
   21.7726  135.7912   -5.3167 C   0  0  0  0  0  0  0  0  0  0  0  0
   22.2372  135.0317   -4.3492 N   0  0  0  0  0  0  0  0  0  0  0  0
   21.9616  135.6257   -3.1500 C   0  0  0  0  0  0  0  0  0  0  0  0
   21.3017  136.7953   -3.3909 C   0  0  0  0  0  0  0  0  0  0  0  0
   20.7939  137.8054   -2.3417 C   0  0  1  0  0  0  0  0  0  0  0  0
   21.9157  138.7482   -2.1204 N   0  3  0  0  0  0  0  0  0  0  0  0
   19.5203  138.5195   -2.8401 C   0  0  0  0  0  0  0  0  0  0  0  0
   19.5376  139.9000   -3.0141 C   0  0  0  0  0  0  0  0  0  0  0  0
   18.3980  140.5588   -3.4637 C   0  0  0  0  0  0  0  0  0  0  0  0
   17.2506  139.8210   -3.7332 C   0  0  0  0  0  0  0  0  0  0  0  0
   15.7838  140.6490   -4.3090 Cl  0  0  0  0  0  0  0  0  0  0  0  0
   17.2315  138.4414   -3.5601 C   0  0  0  0  0  0  0  0  0  0  0  0
   18.3717  137.7836   -3.1106 C   0  0  0  0  0  0  0  0  0  0  0  0
   20.4232  137.1238   -1.0409 C   0  0  0  0  0  0  0  0  0  0  0  0
   20.5723  137.8065    0.1585 C   0  0  0  0  0  0  0  0  0  0  0  0
   20.2183  137.1392    1.3235 C   0  0  0  0  0  0  0  0  0  0  0  0
   19.7325  135.8359    1.2916 C   0  0  0  0  0  0  0  0  0  0  0  0
   19.5967  135.1843    0.0738 C   0  0  0  0  0  0  0  0  0  0  0  0
   19.9428  135.8250   -1.1104 C   0  0  0  0  0  0  0  0  0  0  0  0
   19.0957  133.8205    0.0422 C   0  0  0  0  0  0  0  0  0  0  0  0
   18.9445  133.0979   -1.2060 C   0  0  0  0  0  0  0  0  0  0  0  0
   20.0597  132.8805   -2.0082 C   0  0  0  0  0  0  0  0  0  0  0  0
   19.9058  132.1864   -3.2042 C   0  0  0  0  0  0  0  0  0  0  0  0
   18.6595  131.7130   -3.6004 C   0  0  0  0  0  0  0  0  0  0  0  0
   17.5581  131.9420   -2.7822 C   0  0  0  0  0  0  0  0  0  0  0  0
   15.9543  131.3453   -3.2720 Cl  0  0  0  0  0  0  0  0  0  0  0  0
   17.6885  132.6341   -1.5826 C   0  0  0  0  0  0  0  0  0  0  0  0
   18.7564  133.1691    1.1398 C   0  0  0  0  0  0  0  0  0  0  0  0
   18.8875  133.8353    2.4213 C   0  0  0  0  0  0  0  0  0  0  0  0
   18.5731  133.2337    3.4357 O   0  0  0  0  0  0  0  0  0  0  0  0
   19.3718  135.1499    2.4585 N   0  0  0  0  0  0  0  0  0  0  0  0
   19.4892  135.7788    3.7849 C   0  0  0  0  0  0  0  0  0  0  0  0
   20.2053  138.6637   -4.8233 H   0  0  0  0  0  0  0  0  0  0  0  0
   21.2176  138.4199   -6.0812 H   0  0  0  0  0  0  0  0  0  0  0  0
   19.7894  137.6307   -6.0176 H   0  0  0  0  0  0  0  0  0  0  0  0
   21.8339  135.6009   -6.2966 H   0  0  0  0  0  0  0  0  0  0  0  0
   22.2026  135.2646   -2.2492 H   0  0  0  0  0  0  0  0  0  0  0  0
   22.4891  138.4143   -1.3723 H   0  0  0  0  0  0  0  0  0  0  0  0
   22.4628  138.8169   -2.9546 H   0  0  0  0  0  0  0  0  0  0  0  0
   21.5521  139.6495   -1.8850 H   0  0  0  0  0  0  0  0  0  0  0  0
   20.3694  140.4185   -2.8160 H   0  0  0  0  0  0  0  0  0  0  0  0
   18.4038  141.5506   -3.5915 H   0  0  0  0  0  0  0  0  0  0  0  0
   16.3996  137.9231   -3.7585 H   0  0  0  0  0  0  0  0  0  0  0  0
   18.3655  136.7918   -2.9832 H   0  0  0  0  0  0  0  0  0  0  0  0
   20.9215  138.7433    0.1826 H   0  0  0  0  0  0  0  0  0  0  0  0
   20.3144  137.6048    2.2033 H   0  0  0  0  0  0  0  0  0  0  0  0
   19.8477  135.3604   -1.9909 H   0  0  0  0  0  0  0  0  0  0  0  0
   20.9588  133.2180   -1.7295 H   0  0  0  0  0  0  0  0  0  0  0  0
   20.7023  132.0257   -3.7870 H   0  0  0  0  0  0  0  0  0  0  0  0
   18.5566  131.2149   -4.4615 H   0  0  0  0  0  0  0  0  0  0  0  0
   16.8918  132.7956   -1.0002 H   0  0  0  0  0  0  0  0  0  0  0  0
   18.4142  132.2308    1.0881 H   0  0  0  0  0  0  0  0  0  0  0  0
   19.8461  136.7074    3.6831 H   0  0  0  0  0  0  0  0  0  0  0  0
   18.5887  135.8133    4.2183 H   0  0  0  0  0  0  0  0  0  0  0  0
   20.1127  135.2426    4.3539 H   0  0  0  0  0  0  0  0  0  0  0  0
  1  2  1  0  0  0  0
  2  3  1  0  0  0  0
  3  4  2  0  0  0  0
  4  5  1  0  0  0  0
  5  6  2  0  0  0  0
  6  7  1  0  0  0  0
  7  8  1  0  0  0  0
  7  9  1  0  0  0  0
  9 10  2  0  0  0  0
 10 11  1  0  0  0  0
 11 12  2  0  0  0  0
 12 13  1  0  0  0  0
 12 14  1  0  0  0  0
 14 15  2  0  0  0  0
  7 16  1  0  0  0  0
 16 17  2  0  0  0  0
 17 18  1  0  0  0  0
 18 19  2  0  0  0  0
 19 20  1  0  0  0  0
 20 21  2  0  0  0  0
 20 22  1  0  0  0  0
 22 23  1  0  0  0  0
 23 24  2  0  0  0  0
 24 25  1  0  0  0  0
 25 26  2  0  0  0  0
 26 27  1  0  0  0  0
 27 28  1  0  0  0  0
 27 29  2  0  0  0  0
 22 30  2  0  0  0  0
 30 31  1  0  0  0  0
 31 32  2  0  0  0  0
 31 33  1  0  0  0  0
 33 34  1  0  0  0  0
  6  2  1  0  0  0  0
 15  9  1  0  0  0  0
 21 16  1  0  0  0  0
 29 23  1  0  0  0  0
 33 19  1  0  0  0  0
  1 35  1  0  0  0  0
  1 36  1  0  0  0  0
  1 37  1  0  0  0  0
  3 38  1  0  0  0  0
  5 39  1  0  0  0  0
  8 40  1  0  0  0  0
  8 41  1  0  0  0  0
  8 42  1  0  0  0  0
 10 43  1  0  0  0  0
 11 44  1  0  0  0  0
 14 45  1  0  0  0  0
 15 46  1  0  0  0  0
 17 47  1  0  0  0  0
 18 48  1  0  0  0  0
 21 49  1  0  0  0  0
 24 50  1  0  0  0  0
 25 51  1  0  0  0  0
 26 52  1  0  0  0  0
 29 53  1  0  0  0  0
 30 54  1  0  0  0  0
 34 55  1  0  0  0  0
 34 56  1  0  0  0  0
 34 57  1  0  0  0  0
M  CHG  1   8   1
M  END
>  <docking-score>
-16.76

$$$$
1SA4_JAN_3
foFlexX   03192112233D 1   1.00000     0.00000     0
FlexX 4.5.0 fol007
 57 61  0  0  0  0            999 V2000
   20.5068  137.2922   -5.6759 C   0  0  0  0  0  0  0  0  0  0  0  0
   21.3935  136.4916   -4.8187 N   0  0  0  0  0  0  0  0  0  0  0  0
   22.2979  135.5700   -5.2596 C   0  0  0  0  0  0  0  0  0  0  0  0
   22.9020  135.0650   -4.2065 N   0  0  0  0  0  0  0  0  0  0  0  0
   22.3953  135.6530   -3.0821 C   0  0  0  0  0  0  0  0  0  0  0  0
   21.4427  136.5539   -3.4597 C   0  0  0  0  0  0  0  0  0  0  0  0
   20.6158  137.4445   -2.5470 C   0  0  1  0  0  0  0  0  0  0  0  0
   21.4036  138.6890   -2.3838 N   0  3  0  0  0  0  0  0  0  0  0  0
   19.2231  137.7102   -3.1556 C   0  0  0  0  0  0  0  0  0  0  0  0
   18.8532  139.0155   -3.4655 C   0  0  0  0  0  0  0  0  0  0  0  0
   17.6017  139.2718   -4.0156 C   0  0  0  0  0  0  0  0  0  0  0  0
   16.7334  138.2109   -4.2480 C   0  0  0  0  0  0  0  0  0  0  0  0
   15.1279  138.5221   -4.9514 Cl  0  0  0  0  0  0  0  0  0  0  0  0
   17.1014  136.9059   -3.9393 C   0  0  0  0  0  0  0  0  0  0  0  0
   18.3532  136.6507   -3.3893 C   0  0  0  0  0  0  0  0  0  0  0  0
   20.3726  136.7816   -1.1629 C   0  0  0  0  0  0  0  0  0  0  0  0
   20.8447  137.4000   -0.0133 C   0  0  0  0  0  0  0  0  0  0  0  0
   20.6019  136.7687    1.1993 C   0  0  0  0  0  0  0  0  0  0  0  0
   19.9119  135.5622    1.2614 C   0  0  0  0  0  0  0  0  0  0  0  0
   19.4545  134.9728    0.0910 C   0  0  0  0  0  0  0  0  0  0  0  0
   19.6819  135.5796   -1.1388 C   0  0  0  0  0  0  0  0  0  0  0  0
   18.7399  133.7091    0.1565 C   0  0  0  0  0  0  0  0  0  0  0  0
   18.2501  133.0524   -1.0415 C   0  0  0  0  0  0  0  0  0  0  0  0
   19.1519  132.6786   -2.0322 C   0  0  0  0  0  0  0  0  0  0  0  0
   18.6740  132.0496   -3.1775 C   0  0  0  0  0  0  0  0  0  0  0  0
   17.3164  131.7941   -3.3388 C   0  0  0  0  0  0  0  0  0  0  0  0
   16.4327  132.1767   -2.3349 C   0  0  0  0  0  0  0  0  0  0  0  0
   14.6914  131.8597   -2.5226 Cl  0  0  0  0  0  0  0  0  0  0  0  0
   16.8882  132.8074   -1.1817 C   0  0  0  0  0  0  0  0  0  0  0  0
   18.5017  133.0928    1.3001 C   0  0  0  0  0  0  0  0  0  0  0  0
   18.9684  133.6958    2.5337 C   0  0  0  0  0  0  0  0  0  0  0  0
   18.7477  133.1268    3.5907 O   0  0  0  0  0  0  0  0  0  0  0  0
   19.6598  134.9135    2.4771 N   0  0  0  0  0  0  0  0  0  0  0  0
   20.1152  135.4806    3.7575 C   0  0  0  0  0  0  0  0  0  0  0  0
   19.9440  137.8911   -5.1061 H   0  0  0  0  0  0  0  0  0  0  0  0
   21.0577  137.8467   -6.2996 H   0  0  0  0  0  0  0  0  0  0  0  0
   19.9157  136.6833   -6.2049 H   0  0  0  0  0  0  0  0  0  0  0  0
   22.4704  135.3229   -6.2131 H   0  0  0  0  0  0  0  0  0  0  0  0
   22.6750  135.4565   -2.1424 H   0  0  0  0  0  0  0  0  0  0  0  0
   22.0025  138.6024   -1.5876 H   0  0  0  0  0  0  0  0  0  0  0  0
   21.9572  138.8429   -3.2022 H   0  0  0  0  0  0  0  0  0  0  0  0
   20.7826  139.4616   -2.2513 H   0  0  0  0  0  0  0  0  0  0  0  0
   19.4873  139.7692   -3.2926 H   0  0  0  0  0  0  0  0  0  0  0  0
   17.3297  140.2074   -4.2411 H   0  0  0  0  0  0  0  0  0  0  0  0
   16.4672  136.1524   -4.1124 H   0  0  0  0  0  0  0  0  0  0  0  0
   18.6248  135.7150   -3.1642 H   0  0  0  0  0  0  0  0  0  0  0  0
   21.3409  138.2671   -0.0568 H   0  0  0  0  0  0  0  0  0  0  0  0
   20.9295  137.1898    2.0451 H   0  0  0  0  0  0  0  0  0  0  0  0
   19.3553  135.1595   -1.9855 H   0  0  0  0  0  0  0  0  0  0  0  0
   20.1294  132.8592   -1.9229 H   0  0  0  0  0  0  0  0  0  0  0  0
   19.3155  131.7775   -3.8947 H   0  0  0  0  0  0  0  0  0  0  0  0
   16.9802  131.3416   -4.1648 H   0  0  0  0  0  0  0  0  0  0  0  0
   16.2466  133.0803   -0.4649 H   0  0  0  0  0  0  0  0  0  0  0  0
   18.0072  132.2238    1.3151 H   0  0  0  0  0  0  0  0  0  0  0  0
   20.5948  136.3418    3.5889 H   0  0  0  0  0  0  0  0  0  0  0  0
   19.3254  135.6489    4.3473 H   0  0  0  0  0  0  0  0  0  0  0  0
   20.7347  134.8363    4.2059 H   0  0  0  0  0  0  0  0  0  0  0  0
  1  2  1  0  0  0  0
  2  3  1  0  0  0  0
  3  4  2  0  0  0  0
  4  5  1  0  0  0  0
  5  6  2  0  0  0  0
  6  7  1  0  0  0  0
  7  8  1  0  0  0  0
  7  9  1  0  0  0  0
  9 10  2  0  0  0  0
 10 11  1  0  0  0  0
 11 12  2  0  0  0  0
 12 13  1  0  0  0  0
 12 14  1  0  0  0  0
 14 15  2  0  0  0  0
  7 16  1  0  0  0  0
 16 17  2  0  0  0  0
 17 18  1  0  0  0  0
 18 19  2  0  0  0  0
 19 20  1  0  0  0  0
 20 21  2  0  0  0  0
 20 22  1  0  0  0  0
 22 23  1  0  0  0  0
 23 24  2  0  0  0  0
 24 25  1  0  0  0  0
 25 26  2  0  0  0  0
 26 27  1  0  0  0  0
 27 28  1  0  0  0  0
 27 29  2  0  0  0  0
 22 30  2  0  0  0  0
 30 31  1  0  0  0  0
 31 32  2  0  0  0  0
 31 33  1  0  0  0  0
 33 34  1  0  0  0  0
  6  2  1  0  0  0  0
 15  9  1  0  0  0  0
 21 16  1  0  0  0  0
 29 23  1  0  0  0  0
 33 19  1  0  0  0  0
  1 35  1  0  0  0  0
  1 36  1  0  0  0  0
  1 37  1  0  0  0  0
  3 38  1  0  0  0  0
  5 39  1  0  0  0  0
  8 40  1  0  0  0  0
  8 41  1  0  0  0  0
  8 42  1  0  0  0  0
 10 43  1  0  0  0  0
 11 44  1  0  0  0  0
 14 45  1  0  0  0  0
 15 46  1  0  0  0  0
 17 47  1  0  0  0  0
 18 48  1  0  0  0  0
 21 49  1  0  0  0  0
 24 50  1  0  0  0  0
 25 51  1  0  0  0  0
 26 52  1  0  0  0  0
 29 53  1  0  0  0  0
 30 54  1  0  0  0  0
 34 55  1  0  0  0  0
 34 56  1  0  0  0  0
 34 57  1  0  0  0  0
M  CHG  1   8   1
M  END
>  <docking-score>
-16.57

$$$$
1MZC_BNE_1
foFlexX   03192112233D 1   1.00000     0.00000     0
FlexX 4.5.0 fol007
 69 72  0  0  0  0            999 V2000
   13.3353  130.8156   -2.9973 C   0  0  0  0  0  0  0  0  0  0  0  0
   13.9494  131.9949   -2.2280 C   0  0  0  0  0  0  0  0  0  0  0  0
   14.6839  133.0027   -3.0912 C   0  0  1  0  0  0  0  0  0  0  0  0
   16.1363  132.5677   -3.1902 C   0  0  0  0  0  0  0  0  0  0  0  0
   16.7646  132.5208   -4.4304 C   0  0  0  0  0  0  0  0  0  0  0  0
   18.0949  132.1194   -4.4973 C   0  0  0  0  0  0  0  0  0  0  0  0
   18.7961  131.7678   -3.3486 C   0  0  0  0  0  0  0  0  0  0  0  0
   18.1486  131.8215   -2.1186 C   0  0  0  0  0  0  0  0  0  0  0  0
   18.8222  131.4813   -0.9986 O   0  0  0  0  0  0  0  0  0  0  0  0
   19.5622  132.3657   -0.1963 C   0  0  0  0  0  0  0  0  0  0  0  0
   20.1600  133.4694   -0.7956 C   0  0  0  0  0  0  0  0  0  0  0  0
   20.8946  134.3492   -0.0074 C   0  0  0  0  0  0  0  0  0  0  0  0
   21.5525  135.5588   -0.6519 C   0  0  1  0  0  0  0  0  0  0  0  0
   20.5305  136.7206   -0.5836 C   0  0  0  0  0  0  0  0  0  0  0  0
   22.7776  135.9825    0.0560 N   0  3  0  0  0  0  0  0  0  0  0  0
   21.9235  135.2433   -2.1079 C   0  0  0  0  0  0  0  0  0  0  0  0
   23.1040  134.7084   -2.5330 C   0  0  0  0  0  0  0  0  0  0  0  0
   23.0205  134.5888   -3.8886 N   0  0  0  0  0  0  0  0  0  0  0  0
   21.8437  135.0301   -4.2781 C   0  0  0  0  0  0  0  0  0  0  0  0
   21.1308  135.4398   -3.1945 N   0  0  0  0  0  0  0  0  0  0  0  0
   19.7699  135.9967   -3.1959 C   0  0  0  0  0  0  0  0  0  0  0  0
   21.0361  134.1385    1.3604 C   0  0  0  0  0  0  0  0  0  0  0  0
   20.4338  133.0315    1.9488 C   0  0  0  0  0  0  0  0  0  0  0  0
   19.6966  132.1450    1.1705 C   0  0  0  0  0  0  0  0  0  0  0  0
   19.0383  130.9351    1.8135 C   0  0  0  0  0  0  0  0  0  0  0  0
   18.5369  130.0139    2.3023 N   0  0  0  0  0  0  0  0  0  0  0  0
   16.8191  132.2202   -2.0289 C   0  0  0  0  0  0  0  0  0  0  0  0
   14.0771  132.8151   -4.4835 C   0  0  0  0  0  0  0  0  0  0  0  0
   14.5382  133.7715   -5.5861 C   0  0  0  0  0  0  0  0  0  0  0  0
   13.9478  135.1758   -5.5069 C   0  0  0  0  0  0  0  0  0  0  0  0
   14.5431  136.0912   -4.4240 C   0  0  0  0  0  0  0  0  0  0  0  0
   14.5572  135.6823   -2.9917 N   0  0  0  0  0  0  0  0  0  0  0  0
   14.4966  136.8064   -2.0458 C   0  0  0  0  0  0  0  0  0  0  0  0
   14.6144  134.3807   -2.4123 C   0  0  0  0  0  0  0  0  0  0  0  0
   14.6051  134.3512   -1.1937 O   0  0  0  0  0  0  0  0  0  0  0  0
   14.0586  130.3151   -3.4730 H   0  0  0  0  0  0  0  0  0  0  0  0
   12.8730  130.2036   -2.3556 H   0  0  0  0  0  0  0  0  0  0  0  0
   12.6745  131.1604   -3.6639 H   0  0  0  0  0  0  0  0  0  0  0  0
   14.5962  131.6276   -1.5596 H   0  0  0  0  0  0  0  0  0  0  0  0
   13.2121  132.4728   -1.7506 H   0  0  0  0  0  0  0  0  0  0  0  0
   16.2677  132.7718   -5.2611 H   0  0  0  0  0  0  0  0  0  0  0  0
   18.5542  132.0830   -5.3849 H   0  0  0  0  0  0  0  0  0  0  0  0
   19.7521  131.4804   -3.4062 H   0  0  0  0  0  0  0  0  0  0  0  0
   20.0632  133.6280   -1.7781 H   0  0  0  0  0  0  0  0  0  0  0  0
   20.9182  137.5318   -1.0215 H   0  0  0  0  0  0  0  0  0  0  0  0
   19.6913  136.4547   -1.0580 H   0  0  0  0  0  0  0  0  0  0  0  0
   20.3222  136.9255    0.3727 H   0  0  0  0  0  0  0  0  0  0  0  0
   23.2098  135.1865    0.4798 H   0  0  0  0  0  0  0  0  0  0  0  0
   23.4119  136.3988   -0.5954 H   0  0  0  0  0  0  0  0  0  0  0  0
   22.5406  136.6489    0.7628 H   0  0  0  0  0  0  0  0  0  0  0  0
   23.8824  134.4527   -1.9597 H   0  0  0  0  0  0  0  0  0  0  0  0
   21.5228  135.0598   -5.2248 H   0  0  0  0  0  0  0  0  0  0  0  0
   19.4992  136.2178   -2.2590 H   0  0  0  0  0  0  0  0  0  0  0  0
   19.7499  136.8267   -3.7533 H   0  0  0  0  0  0  0  0  0  0  0  0
   19.1350  135.3243   -3.5765 H   0  0  0  0  0  0  0  0  0  0  0  0
   21.5669  134.7782    1.9164 H   0  0  0  0  0  0  0  0  0  0  0  0
   20.5307  132.8728    2.9314 H   0  0  0  0  0  0  0  0  0  0  0  0
   16.3599  132.2566   -1.1412 H   0  0  0  0  0  0  0  0  0  0  0  0
   13.0860  132.9147   -4.3950 H   0  0  0  0  0  0  0  0  0  0  0  0
   14.2933  131.8857   -4.7825 H   0  0  0  0  0  0  0  0  0  0  0  0
   14.2814  133.3758   -6.4679 H   0  0  0  0  0  0  0  0  0  0  0  0
   15.5338  133.8496   -5.5331 H   0  0  0  0  0  0  0  0  0  0  0  0
   14.0871  135.6177   -6.3931 H   0  0  0  0  0  0  0  0  0  0  0  0
   12.9677  135.0871   -5.3291 H   0  0  0  0  0  0  0  0  0  0  0  0
   15.4955  136.2536   -4.6820 H   0  0  0  0  0  0  0  0  0  0  0  0
   14.0345  136.9511   -4.4685 H   0  0  0  0  0  0  0  0  0  0  0  0
   14.5060  136.4552   -1.1096 H   0  0  0  0  0  0  0  0  0  0  0  0
   15.2868  137.4030   -2.1860 H   0  0  0  0  0  0  0  0  0  0  0  0
   13.6557  137.3257   -2.1986 H   0  0  0  0  0  0  0  0  0  0  0  0
  1  2  1  0  0  0  0
  2  3  1  0  0  0  0
  3  4  1  0  0  0  0
  4  5  2  0  0  0  0
  5  6  1  0  0  0  0
  6  7  2  0  0  0  0
  7  8  1  0  0  0  0
  8  9  1  0  0  0  0
  9 10  1  0  0  0  0
 10 11  2  0  0  0  0
 11 12  1  0  0  0  0
 12 13  1  0  0  0  0
 13 14  1  0  0  0  0
 13 15  1  0  0  0  0
 13 16  1  0  0  0  0
 16 17  2  0  0  0  0
 17 18  1  0  0  0  0
 18 19  2  0  0  0  0
 19 20  1  0  0  0  0
 20 21  1  0  0  0  0
 12 22  2  0  0  0  0
 22 23  1  0  0  0  0
 23 24  2  0  0  0  0
 24 25  1  0  0  0  0
 25 26  3  0  0  0  0
  8 27  2  0  0  0  0
  3 28  1  0  0  0  0
 28 29  1  0  0  0  0
 29 30  1  0  0  0  0
 30 31  1  0  0  0  0
 31 32  1  0  0  0  0
 32 33  1  0  0  0  0
 32 34  1  0  0  0  0
 34 35  2  0  0  0  0
 34  3  1  0  0  0  0
 27  4  1  0  0  0  0
 24 10  1  0  0  0  0
 20 16  1  0  0  0  0
  1 36  1  0  0  0  0
  1 37  1  0  0  0  0
  1 38  1  0  0  0  0
  2 39  1  0  0  0  0
  2 40  1  0  0  0  0
  5 41  1  0  0  0  0
  6 42  1  0  0  0  0
  7 43  1  0  0  0  0
 11 44  1  0  0  0  0
 14 45  1  0  0  0  0
 14 46  1  0  0  0  0
 14 47  1  0  0  0  0
 15 48  1  0  0  0  0
 15 49  1  0  0  0  0
 15 50  1  0  0  0  0
 17 51  1  0  0  0  0
 19 52  1  0  0  0  0
 21 53  1  0  0  0  0
 21 54  1  0  0  0  0
 21 55  1  0  0  0  0
 22 56  1  0  0  0  0
 23 57  1  0  0  0  0
 27 58  1  0  0  0  0
 28 59  1  0  0  0  0
 28 60  1  0  0  0  0
 29 61  1  0  0  0  0
 29 62  1  0  0  0  0
 30 63  1  0  0  0  0
 30 64  1  0  0  0  0
 31 65  1  0  0  0  0
 31 66  1  0  0  0  0
 33 67  1  0  0  0  0
 33 68  1  0  0  0  0
 33 69  1  0  0  0  0
M  CHG  1  15   1
M  END
>  <docking-score>
-28.37

$$$$
1MZC_BNE_2
foFlexX   03192112233D 1   1.00000     0.00000     0
FlexX 4.5.0 fol007
 69 72  0  0  0  0            999 V2000
   14.3966  135.5212   -1.8774 C   0  0  0  0  0  0  0  0  0  0  0  0
   14.2147  135.7991   -3.3772 C   0  0  0  0  0  0  0  0  0  0  0  0
   14.7275  134.7037   -4.2930 C   0  0  1  0  0  0  0  0  0  0  0  0
   14.5888  133.3884   -3.5436 C   0  0  0  0  0  0  0  0  0  0  0  0
   13.3344  132.8085   -3.3842 C   0  0  0  0  0  0  0  0  0  0  0  0
   13.2311  131.6046   -2.6946 C   0  0  0  0  0  0  0  0  0  0  0  0
   14.3576  130.9814   -2.1682 C   0  0  0  0  0  0  0  0  0  0  0  0
   15.6023  131.5786   -2.3388 C   0  0  0  0  0  0  0  0  0  0  0  0
   16.7009  130.9800   -1.8303 O   0  0  0  0  0  0  0  0  0  0  0  0
   18.0129  131.4724   -1.9295 C   0  0  0  0  0  0  0  0  0  0  0  0
   18.7107  131.7534   -0.7596 C   0  0  0  0  0  0  0  0  0  0  0  0
   20.0101  132.2414   -0.8501 C   0  0  0  0  0  0  0  0  0  0  0  0
   20.7821  132.5522    0.4222 C   0  0  1  0  0  0  0  0  0  0  0  0
   21.5442  131.2626    0.8162 C   0  0  0  0  0  0  0  0  0  0  0  0
   21.7723  133.6320    0.2353 N   0  3  0  0  0  0  0  0  0  0  0  0
   19.8137  132.9754    1.5357 C   0  0  0  0  0  0  0  0  0  0  0  0
   19.6586  132.3515    2.7387 C   0  0  0  0  0  0  0  0  0  0  0  0
   18.7077  133.0455    3.4264 N   0  0  0  0  0  0  0  0  0  0  0  0
   18.2973  134.0488    2.6804 C   0  0  0  0  0  0  0  0  0  0  0  0
   18.9696  134.0401    1.4979 N   0  0  0  0  0  0  0  0  0  0  0  0
   18.8095  134.9913    0.3879 C   0  0  0  0  0  0  0  0  0  0  0  0
   20.6128  132.4494   -2.0866 C   0  0  0  0  0  0  0  0  0  0  0  0
   19.9054  132.1648   -3.2499 C   0  0  0  0  0  0  0  0  0  0  0  0
   18.6053  131.6761   -3.1715 C   0  0  0  0  0  0  0  0  0  0  0  0
   17.8322  131.3650   -4.4427 C   0  0  0  0  0  0  0  0  0  0  0  0
   17.2430  131.1280   -5.4101 N   0  0  0  0  0  0  0  0  0  0  0  0
   15.7283  132.7819   -3.0250 C   0  0  0  0  0  0  0  0  0  0  0  0
   13.8313  134.6667   -5.5361 C   0  0  0  0  0  0  0  0  0  0  0  0
   13.9445  133.4779   -6.4913 C   0  0  0  0  0  0  0  0  0  0  0  0
   15.3485  132.9181   -6.7079 C   0  0  0  0  0  0  0  0  0  0  0  0
   16.4670  133.9421   -6.9046 C   0  0  0  0  0  0  0  0  0  0  0  0
   16.9457  134.6517   -5.6936 N   0  0  0  0  0  0  0  0  0  0  0  0
   18.3585  135.0635   -5.6952 C   0  0  0  0  0  0  0  0  0  0  0  0
   16.2091  134.9838   -4.5366 C   0  0  0  0  0  0  0  0  0  0  0  0
   16.8188  135.5376   -3.6321 O   0  0  0  0  0  0  0  0  0  0  0  0
   15.3694  135.4077   -1.6750 H   0  0  0  0  0  0  0  0  0  0  0  0
   14.0337  136.2891   -1.3497 H   0  0  0  0  0  0  0  0  0  0  0  0
   13.9053  134.6857   -1.6312 H   0  0  0  0  0  0  0  0  0  0  0  0
   14.7024  136.6436   -3.5987 H   0  0  0  0  0  0  0  0  0  0  0  0
   13.2383  135.9216   -3.5548 H   0  0  0  0  0  0  0  0  0  0  0  0
   12.5195  133.2502   -3.7594 H   0  0  0  0  0  0  0  0  0  0  0  0
   12.3332  131.1809   -2.5757 H   0  0  0  0  0  0  0  0  0  0  0  0
   14.2739  130.1161   -1.6739 H   0  0  0  0  0  0  0  0  0  0  0  0
   18.2847  131.6067    0.1332 H   0  0  0  0  0  0  0  0  0  0  0  0
   22.0474  131.4193    1.6660 H   0  0  0  0  0  0  0  0  0  0  0  0
   20.8914  130.5167    0.9480 H   0  0  0  0  0  0  0  0  0  0  0  0
   22.1859  131.0193    0.0888 H   0  0  0  0  0  0  0  0  0  0  0  0
   21.7401  133.9536   -0.7110 H   0  0  0  0  0  0  0  0  0  0  0  0
   21.5596  134.3897    0.8524 H   0  0  0  0  0  0  0  0  0  0  0  0
   22.6875  133.2838    0.4381 H   0  0  0  0  0  0  0  0  0  0  0  0
   20.1489  131.5397    3.0558 H   0  0  0  0  0  0  0  0  0  0  0  0
   17.5990  134.7149    2.9423 H   0  0  0  0  0  0  0  0  0  0  0  0
   19.4258  134.7396   -0.3583 H   0  0  0  0  0  0  0  0  0  0  0  0
   17.8644  134.9673    0.0621 H   0  0  0  0  0  0  0  0  0  0  0  0
   19.0294  135.9138    0.7051 H   0  0  0  0  0  0  0  0  0  0  0  0
   21.5475  132.8008   -2.1387 H   0  0  0  0  0  0  0  0  0  0  0  0
   20.3314  132.3115   -4.1426 H   0  0  0  0  0  0  0  0  0  0  0  0
   16.6263  133.2055   -3.1439 H   0  0  0  0  0  0  0  0  0  0  0  0
   14.0311  135.4903   -6.0670 H   0  0  0  0  0  0  0  0  0  0  0  0
   12.8842  134.6978   -5.2166 H   0  0  0  0  0  0  0  0  0  0  0  0
   13.5906  133.7666   -7.3809 H   0  0  0  0  0  0  0  0  0  0  0  0
   13.3745  132.7403   -6.1293 H   0  0  0  0  0  0  0  0  0  0  0  0
   15.5812  132.3633   -5.9091 H   0  0  0  0  0  0  0  0  0  0  0  0
   15.3219  132.3368   -7.5212 H   0  0  0  0  0  0  0  0  0  0  0  0
   17.2489  133.4630   -7.3033 H   0  0  0  0  0  0  0  0  0  0  0  0
   16.1354  134.6321   -7.5480 H   0  0  0  0  0  0  0  0  0  0  0  0
   18.5704  135.5313   -4.8371 H   0  0  0  0  0  0  0  0  0  0  0  0
   18.9411  134.2559   -5.7872 H   0  0  0  0  0  0  0  0  0  0  0  0
   18.5242  135.6832   -6.4623 H   0  0  0  0  0  0  0  0  0  0  0  0
  1  2  1  0  0  0  0
  2  3  1  0  0  0  0
  3  4  1  0  0  0  0
  4  5  2  0  0  0  0
  5  6  1  0  0  0  0
  6  7  2  0  0  0  0
  7  8  1  0  0  0  0
  8  9  1  0  0  0  0
  9 10  1  0  0  0  0
 10 11  2  0  0  0  0
 11 12  1  0  0  0  0
 12 13  1  0  0  0  0
 13 14  1  0  0  0  0
 13 15  1  0  0  0  0
 13 16  1  0  0  0  0
 16 17  2  0  0  0  0
 17 18  1  0  0  0  0
 18 19  2  0  0  0  0
 19 20  1  0  0  0  0
 20 21  1  0  0  0  0
 12 22  2  0  0  0  0
 22 23  1  0  0  0  0
 23 24  2  0  0  0  0
 24 25  1  0  0  0  0
 25 26  3  0  0  0  0
  8 27  2  0  0  0  0
  3 28  1  0  0  0  0
 28 29  1  0  0  0  0
 29 30  1  0  0  0  0
 30 31  1  0  0  0  0
 31 32  1  0  0  0  0
 32 33  1  0  0  0  0
 32 34  1  0  0  0  0
 34 35  2  0  0  0  0
 34  3  1  0  0  0  0
 27  4  1  0  0  0  0
 24 10  1  0  0  0  0
 20 16  1  0  0  0  0
  1 36  1  0  0  0  0
  1 37  1  0  0  0  0
  1 38  1  0  0  0  0
  2 39  1  0  0  0  0
  2 40  1  0  0  0  0
  5 41  1  0  0  0  0
  6 42  1  0  0  0  0
  7 43  1  0  0  0  0
 11 44  1  0  0  0  0
 14 45  1  0  0  0  0
 14 46  1  0  0  0  0
 14 47  1  0  0  0  0
 15 48  1  0  0  0  0
 15 49  1  0  0  0  0
 15 50  1  0  0  0  0
 17 51  1  0  0  0  0
 19 52  1  0  0  0  0
 21 53  1  0  0  0  0
 21 54  1  0  0  0  0
 21 55  1  0  0  0  0
 22 56  1  0  0  0  0
 23 57  1  0  0  0  0
 27 58  1  0  0  0  0
 28 59  1  0  0  0  0
 28 60  1  0  0  0  0
 29 61  1  0  0  0  0
 29 62  1  0  0  0  0
 30 63  1  0  0  0  0
 30 64  1  0  0  0  0
 31 65  1  0  0  0  0
 31 66  1  0  0  0  0
 33 67  1  0  0  0  0
 33 68  1  0  0  0  0
 33 69  1  0  0  0  0
M  CHG  1  15   1
M  END
>  <docking-score>
-24.86

$$$$
1MZC_BNE_3
foFlexX   03192112233D 1   1.00000     0.00000     0
FlexX 4.5.0 fol007
 69 72  0  0  0  0            999 V2000
   13.2281  131.0869   -2.7315 C   0  0  0  0  0  0  0  0  0  0  0  0
   13.9616  132.2399   -2.0300 C   0  0  0  0  0  0  0  0  0  0  0  0
   14.7045  133.1794   -2.9604 C   0  0  1  0  0  0  0  0  0  0  0  0
   16.1177  132.6490   -3.1348 C   0  0  0  0  0  0  0  0  0  0  0  0
   16.6648  132.5352   -4.4087 C   0  0  0  0  0  0  0  0  0  0  0  0
   17.9604  132.0469   -4.5447 C   0  0  0  0  0  0  0  0  0  0  0  0
   18.7066  131.6750   -3.4314 C   0  0  0  0  0  0  0  0  0  0  0  0
   18.1402  131.7967   -2.1667 C   0  0  0  0  0  0  0  0  0  0  0  0
   18.8579  131.4373   -1.0806 O   0  0  0  0  0  0  0  0  0  0  0  0
   19.7003  132.2886   -0.3463 C   0  0  0  0  0  0  0  0  0  0  0  0
   20.3293  133.3382   -1.0076 C   0  0  0  0  0  0  0  0  0  0  0  0
   21.1650  134.1850   -0.2869 C   0  0  0  0  0  0  0  0  0  0  0  0
   21.8578  135.3354   -0.9996 C   0  0  1  0  0  0  0  0  0  0  0  0
   21.3967  136.6414   -0.3062 C   0  0  0  0  0  0  0  0  0  0  0  0
   23.3295  135.2587   -0.9024 N   0  3  0  0  0  0  0  0  0  0  0  0
   21.4739  135.3418   -2.4860 C   0  0  0  0  0  0  0  0  0  0  0  0
   20.4190  136.0098   -3.0352 C   0  0  0  0  0  0  0  0  0  0  0  0
   20.4393  135.7520   -4.3739 N   0  0  0  0  0  0  0  0  0  0  0  0
   21.4588  134.9621   -4.6348 C   0  0  0  0  0  0  0  0  0  0  0  0
   22.1298  134.6912   -3.4830 N   0  0  0  0  0  0  0  0  0  0  0  0
   23.3274  133.8501   -3.3396 C   0  0  0  0  0  0  0  0  0  0  0  0
   21.3761  133.9946    1.0749 C   0  0  0  0  0  0  0  0  0  0  0  0
   20.7418  132.9416    1.7257 C   0  0  0  0  0  0  0  0  0  0  0  0
   19.9036  132.0886    1.0152 C   0  0  0  0  0  0  0  0  0  0  0  0
   19.2103  130.9379    1.7263 C   0  0  0  0  0  0  0  0  0  0  0  0
   18.6822  130.0616    2.2671 N   0  0  0  0  0  0  0  0  0  0  0  0
   16.8466  132.2826   -2.0079 C   0  0  0  0  0  0  0  0  0  0  0  0
   14.0031  133.0021   -4.3090 C   0  0  0  0  0  0  0  0  0  0  0  0
   14.4559  133.9029   -5.4607 C   0  0  0  0  0  0  0  0  0  0  0  0
   13.9618  135.3440   -5.3817 C   0  0  0  0  0  0  0  0  0  0  0  0
   14.6790  136.2416   -4.3595 C   0  0  0  0  0  0  0  0  0  0  0  0
   14.7546  135.8630   -2.9207 N   0  0  0  0  0  0  0  0  0  0  0  0
   14.8233  137.0085   -2.0014 C   0  0  0  0  0  0  0  0  0  0  0  0
   14.7643  134.5730   -2.3134 C   0  0  0  0  0  0  0  0  0  0  0  0
   14.8276  134.5700   -1.0959 O   0  0  0  0  0  0  0  0  0  0  0  0
   13.8877  130.5306   -3.2368 H   0  0  0  0  0  0  0  0  0  0  0  0
   12.7679  130.5199   -2.0483 H   0  0  0  0  0  0  0  0  0  0  0  0
   12.5510  131.4596   -3.3661 H   0  0  0  0  0  0  0  0  0  0  0  0
   14.6234  131.8456   -1.3924 H   0  0  0  0  0  0  0  0  0  0  0  0
   13.2867  132.7746   -1.5216 H   0  0  0  0  0  0  0  0  0  0  0  0
   16.1350  132.8002   -5.2144 H   0  0  0  0  0  0  0  0  0  0  0  0
   18.3613  131.9621   -5.4568 H   0  0  0  0  0  0  0  0  0  0  0  0
   19.6372  131.3250   -3.5386 H   0  0  0  0  0  0  0  0  0  0  0  0
   20.1828  133.4819   -1.9863 H   0  0  0  0  0  0  0  0  0  0  0  0
   21.8134  137.4268   -0.7639 H   0  0  0  0  0  0  0  0  0  0  0  0
   20.4008  136.7138   -0.3604 H   0  0  0  0  0  0  0  0  0  0  0  0
   21.6782  136.6268    0.6532 H   0  0  0  0  0  0  0  0  0  0  0  0
   23.6877  134.7339   -1.6746 H   0  0  0  0  0  0  0  0  0  0  0  0
   23.7133  136.1820   -0.9203 H   0  0  0  0  0  0  0  0  0  0  0  0
   23.5841  134.8084   -0.0466 H   0  0  0  0  0  0  0  0  0  0  0  0
   19.7570  136.5799   -2.5487 H   0  0  0  0  0  0  0  0  0  0  0  0
   21.7027  134.6146   -5.5401 H   0  0  0  0  0  0  0  0  0  0  0  0
   23.6015  133.8215   -2.3783 H   0  0  0  0  0  0  0  0  0  0  0  0
   23.1238  132.9235   -3.6558 H   0  0  0  0  0  0  0  0  0  0  0  0
   24.0714  134.2332   -3.8871 H   0  0  0  0  0  0  0  0  0  0  0  0
   21.9793  134.6101    1.5821 H   0  0  0  0  0  0  0  0  0  0  0  0
   20.8882  132.7979    2.7044 H   0  0  0  0  0  0  0  0  0  0  0  0
   16.4458  132.3675   -1.0957 H   0  0  0  0  0  0  0  0  0  0  0  0
   13.0276  133.1676   -4.1641 H   0  0  0  0  0  0  0  0  0  0  0  0
   14.1413  132.0545   -4.5969 H   0  0  0  0  0  0  0  0  0  0  0  0
   14.1211  133.5062   -6.3154 H   0  0  0  0  0  0  0  0  0  0  0  0
   15.4558  133.9175   -5.4691 H   0  0  0  0  0  0  0  0  0  0  0  0
   14.0745  135.7571   -6.2853 H   0  0  0  0  0  0  0  0  0  0  0  0
   12.9908  135.3229   -5.1436 H   0  0  0  0  0  0  0  0  0  0  0  0
   15.6223  136.3363   -4.6777 H   0  0  0  0  0  0  0  0  0  0  0  0
   14.2243  137.1315   -4.3951 H   0  0  0  0  0  0  0  0  0  0  0  0
   14.8676  136.6773   -1.0589 H   0  0  0  0  0  0  0  0  0  0  0  0
   15.6398  137.5494   -2.2033 H   0  0  0  0  0  0  0  0  0  0  0  0
   14.0094  137.5779   -2.1167 H   0  0  0  0  0  0  0  0  0  0  0  0
  1  2  1  0  0  0  0
  2  3  1  0  0  0  0
  3  4  1  0  0  0  0
  4  5  2  0  0  0  0
  5  6  1  0  0  0  0
  6  7  2  0  0  0  0
  7  8  1  0  0  0  0
  8  9  1  0  0  0  0
  9 10  1  0  0  0  0
 10 11  2  0  0  0  0
 11 12  1  0  0  0  0
 12 13  1  0  0  0  0
 13 14  1  0  0  0  0
 13 15  1  0  0  0  0
 13 16  1  0  0  0  0
 16 17  2  0  0  0  0
 17 18  1  0  0  0  0
 18 19  2  0  0  0  0
 19 20  1  0  0  0  0
 20 21  1  0  0  0  0
 12 22  2  0  0  0  0
 22 23  1  0  0  0  0
 23 24  2  0  0  0  0
 24 25  1  0  0  0  0
 25 26  3  0  0  0  0
  8 27  2  0  0  0  0
  3 28  1  0  0  0  0
 28 29  1  0  0  0  0
 29 30  1  0  0  0  0
 30 31  1  0  0  0  0
 31 32  1  0  0  0  0
 32 33  1  0  0  0  0
 32 34  1  0  0  0  0
 34 35  2  0  0  0  0
 34  3  1  0  0  0  0
 27  4  1  0  0  0  0
 24 10  1  0  0  0  0
 20 16  1  0  0  0  0
  1 36  1  0  0  0  0
  1 37  1  0  0  0  0
  1 38  1  0  0  0  0
  2 39  1  0  0  0  0
  2 40  1  0  0  0  0
  5 41  1  0  0  0  0
  6 42  1  0  0  0  0
  7 43  1  0  0  0  0
 11 44  1  0  0  0  0
 14 45  1  0  0  0  0
 14 46  1  0  0  0  0
 14 47  1  0  0  0  0
 15 48  1  0  0  0  0
 15 49  1  0  0  0  0
 15 50  1  0  0  0  0
 17 51  1  0  0  0  0
 19 52  1  0  0  0  0
 21 53  1  0  0  0  0
 21 54  1  0  0  0  0
 21 55  1  0  0  0  0
 22 56  1  0  0  0  0
 23 57  1  0  0  0  0
 27 58  1  0  0  0  0
 28 59  1  0  0  0  0
 28 60  1  0  0  0  0
 29 61  1  0  0  0  0
 29 62  1  0  0  0  0
 30 63  1  0  0  0  0
 30 64  1  0  0  0  0
 31 65  1  0  0  0  0
 31 66  1  0  0  0  0
 33 67  1  0  0  0  0
 33 68  1  0  0  0  0
 33 69  1  0  0  0  0
M  CHG  1  15   1
M  END
>  <docking-score>
-23.68

$$$$
1LD7_U66_1
foFlexX   03192112233D 1   1.00000     0.00000     0
FlexX 4.5.0 fol007
 62 67  0  0  0  0            999 V2000
   17.2539  138.6245   -5.8586 N   0  0  0  0  0  0  0  0  0  0  0  0
   18.4049  138.6810   -5.9674 C   0  0  0  0  0  0  0  0  0  0  0  0
   19.8740  138.7558   -6.1009 C   0  0  1  0  0  0  0  0  0  0  0  0
   20.4669  139.4713   -4.8758 C   0  0  0  0  0  0  0  0  0  0  0  0
   20.3596  138.6296   -3.6256 C   0  0  0  0  0  0  0  0  0  0  0  0
   20.3166  137.2784   -3.6572 C   0  0  0  0  0  0  0  0  0  0  0  0
   20.2918  136.5081   -4.9626 C   0  0  0  0  0  0  0  0  0  0  0  0
   20.5362  137.3640   -6.2183 C   0  0  1  0  0  0  0  0  0  0  0  0
   20.1910  136.6636   -7.4272 O   0  0  0  0  0  0  0  0  0  0  0  0
   18.8932  136.2800   -7.7911 C   0  0  0  0  0  0  0  0  0  0  0  0
   18.1668  137.0843   -8.6718 C   0  0  0  0  0  0  0  0  0  0  0  0
   16.8545  136.7568   -9.0056 C   0  0  0  0  0  0  0  0  0  0  0  0
   16.2489  135.6153   -8.4605 C   0  0  0  0  0  0  0  0  0  0  0  0
   14.9191  135.3148   -8.7815 C   0  0  0  0  0  0  0  0  0  0  0  0
   14.3042  134.1897   -8.2409 C   0  0  0  0  0  0  0  0  0  0  0  0
   15.0060  133.3517   -7.3769 C   0  0  0  0  0  0  0  0  0  0  0  0
   16.3450  133.6166   -7.0392 C   0  0  0  0  0  0  0  0  0  0  0  0
   16.9828  134.7644   -7.5884 C   0  0  0  0  0  0  0  0  0  0  0  0
   18.3272  135.0899   -7.3050 C   0  0  0  0  0  0  0  0  0  0  0  0
   17.0203  132.7264   -6.1267 N   0  0  0  0  0  0  0  0  0  0  0  0
   17.0029  131.2714   -6.2140 C   0  0  0  0  0  0  0  0  0  0  0  0
   17.3735  130.7653   -4.8070 C   0  0  0  0  0  0  0  0  0  0  0  0
   18.1011  131.9316   -4.1087 C   0  0  1  0  0  0  0  0  0  0  0  0
   19.5663  131.7697   -4.2574 N   0  3  0  0  0  0  0  0  0  0  0  0
   20.3657  132.9492   -3.8853 C   0  0  0  0  0  0  0  0  0  0  0  0
   20.2783  133.3000   -2.3922 C   0  0  0  0  0  0  0  0  0  0  0  0
   21.3490  134.2987   -2.0297 C   0  0  0  0  0  0  0  0  0  0  0  0
   22.6446  133.9698   -1.6906 C   0  0  0  0  0  0  0  0  0  0  0  0
   23.3641  135.0959   -1.5150 N   0  0  0  0  0  0  0  0  0  0  0  0
   22.4912  136.0948   -1.7609 C   0  0  0  0  0  0  0  0  0  0  0  0
   21.2620  135.6465   -2.0890 N   0  0  0  0  0  0  0  0  0  0  0  0
   20.1045  136.4956   -2.3791 C   0  0  0  0  0  0  0  0  0  0  0  0
   17.5663  133.0947   -4.8713 C   0  0  0  0  0  0  0  0  0  0  0  0
   17.4924  134.2634   -4.4061 O   0  0  0  0  0  0  0  0  0  0  0  0
   20.0948  139.2859   -6.9196 H   0  0  0  0  0  0  0  0  0  0  0  0
   19.9729  140.3287   -4.7317 H   0  0  0  0  0  0  0  0  0  0  0  0
   21.4315  139.6678   -5.0515 H   0  0  0  0  0  0  0  0  0  0  0  0
   20.3188  139.0904   -2.7391 H   0  0  0  0  0  0  0  0  0  0  0  0
   19.3954  136.0738   -5.0511 H   0  0  0  0  0  0  0  0  0  0  0  0
   21.0008  135.8041   -4.9225 H   0  0  0  0  0  0  0  0  0  0  0  0
   21.5222  137.5254   -6.2598 H   0  0  0  0  0  0  0  0  0  0  0  0
   18.5911  137.9000   -9.0651 H   0  0  0  0  0  0  0  0  0  0  0  0
   16.3417  137.3385   -9.6370 H   0  0  0  0  0  0  0  0  0  0  0  0
   14.4095  135.9112   -9.4017 H   0  0  0  0  0  0  0  0  0  0  0  0
   13.3542  133.9816   -8.4735 H   0  0  0  0  0  0  0  0  0  0  0  0
   14.5504  132.5494   -6.9911 H   0  0  0  0  0  0  0  0  0  0  0  0
   18.8817  134.4672   -6.7530 H   0  0  0  0  0  0  0  0  0  0  0  0
   17.6720  130.9543   -6.8861 H   0  0  0  0  0  0  0  0  0  0  0  0
   16.0924  130.9484   -6.4721 H   0  0  0  0  0  0  0  0  0  0  0  0
   17.9761  129.9700   -4.8722 H   0  0  0  0  0  0  0  0  0  0  0  0
   16.5484  130.5176   -4.2992 H   0  0  0  0  0  0  0  0  0  0  0  0
   17.8435  131.9874   -3.1441 H   0  0  0  0  0  0  0  0  0  0  0  0
   19.7587  131.5545   -5.2148 H   0  0  0  0  0  0  0  0  0  0  0  0
   19.8538  131.0058   -3.6797 H   0  0  0  0  0  0  0  0  0  0  0  0
   20.0397  133.7326   -4.4144 H   0  0  0  0  0  0  0  0  0  0  0  0
   21.3225  132.7681   -4.1128 H   0  0  0  0  0  0  0  0  0  0  0  0
   20.4036  132.4694   -1.8496 H   0  0  0  0  0  0  0  0  0  0  0  0
   19.3798  133.6933   -2.1970 H   0  0  0  0  0  0  0  0  0  0  0  0
   22.9961  133.0391   -1.5904 H   0  0  0  0  0  0  0  0  0  0  0  0
   22.7299  137.0643   -1.7058 H   0  0  0  0  0  0  0  0  0  0  0  0
   19.9692  137.1348   -1.6221 H   0  0  0  0  0  0  0  0  0  0  0  0
   19.2928  135.9200   -2.4785 H   0  0  0  0  0  0  0  0  0  0  0  0
  1  2  3  0  0  0  0
  2  3  1  0  0  0  0
  3  4  1  0  0  0  0
  4  5  1  0  0  0  0
  5  6  2  0  0  0  0
  6  7  1  0  0  0  0
  7  8  1  0  0  0  0
  8  9  1  0  0  0  0
  9 10  1  0  0  0  0
 10 11  2  0  0  0  0
 11 12  1  0  0  0  0
 12 13  2  0  0  0  0
 13 14  1  0  0  0  0
 14 15  2  0  0  0  0
 15 16  1  0  0  0  0
 16 17  2  0  0  0  0
 17 18  1  0  0  0  0
 18 19  2  0  0  0  0
 17 20  1  0  0  0  0
 20 21  1  0  0  0  0
 21 22  1  0  0  0  0
 22 23  1  0  0  0  0
 23 24  1  0  0  0  0
 24 25  1  0  0  0  0
 25 26  1  0  0  0  0
 26 27  1  0  0  0  0
 27 28  2  0  0  0  0
 28 29  1  0  0  0  0
 29 30  2  0  0  0  0
 30 31  1  0  0  0  0
 31 32  1  0  0  0  0
 23 33  1  0  0  0  0
 33 34  2  0  0  0  0
  8  3  1  0  0  0  0
 19 10  1  0  0  0  0
 33 20  1  0  0  0  0
 32  6  1  0  0  0  0
 18 13  1  0  0  0  0
 31 27  1  0  0  0  0
  3 35  1  0  0  0  0
  4 36  1  0  0  0  0
  4 37  1  0  0  0  0
  5 38  1  0  0  0  0
  7 39  1  0  0  0  0
  7 40  1  0  0  0  0
  8 41  1  0  0  0  0
 11 42  1  0  0  0  0
 12 43  1  0  0  0  0
 14 44  1  0  0  0  0
 15 45  1  0  0  0  0
 16 46  1  0  0  0  0
 19 47  1  0  0  0  0
 21 48  1  0  0  0  0
 21 49  1  0  0  0  0
 22 50  1  0  0  0  0
 22 51  1  0  0  0  0
 23 52  1  0  0  0  0
 24 53  1  0  0  0  0
 24 54  1  0  0  0  0
 25 55  1  0  0  0  0
 25 56  1  0  0  0  0
 26 57  1  0  0  0  0
 26 58  1  0  0  0  0
 28 59  1  0  0  0  0
 30 60  1  0  0  0  0
 32 61  1  0  0  0  0
 32 62  1  0  0  0  0
M  CHG  1  24   1
M  END
>  <docking-score>
-16.57

$$$$
1LD7_U66_2
foFlexX   03192112233D 1   1.00000     0.00000     0
FlexX 4.5.0 fol007
 62 67  0  0  0  0            999 V2000
   16.7228  132.3206   -1.3792 N   0  0  0  0  0  0  0  0  0  0  0  0
   17.3489  132.0522   -2.3149 C   0  0  0  0  0  0  0  0  0  0  0  0
   18.1440  131.7124   -3.5125 C   0  0  1  0  0  0  0  0  0  0  0  0
   17.4276  132.2306   -4.7705 C   0  0  0  0  0  0  0  0  0  0  0  0
   17.4580  133.7389   -4.8547 C   0  0  0  0  0  0  0  0  0  0  0  0
   18.4333  134.4820   -4.2845 C   0  0  0  0  0  0  0  0  0  0  0  0
   19.5302  133.8564   -3.4458 C   0  0  0  0  0  0  0  0  0  0  0  0
   19.5659  132.3180   -3.4789 C   0  0  1  0  0  0  0  0  0  0  0  0
   20.3981  131.7726   -2.4391 O   0  0  0  0  0  0  0  0  0  0  0  0
   20.1298  131.8594   -1.0664 C   0  0  0  0  0  0  0  0  0  0  0  0
   19.5212  130.7805   -0.4218 C   0  0  0  0  0  0  0  0  0  0  0  0
   19.1915  130.8620    0.9294 C   0  0  0  0  0  0  0  0  0  0  0  0
   19.4677  132.0290    1.6566 C   0  0  0  0  0  0  0  0  0  0  0  0
   19.1035  132.1078    3.0067 C   0  0  0  0  0  0  0  0  0  0  0  0
   19.3645  133.2631    3.7371 C   0  0  0  0  0  0  0  0  0  0  0  0
   19.9915  134.3506    3.1326 C   0  0  0  0  0  0  0  0  0  0  0  0
   20.3796  134.3042    1.7819 C   0  0  0  0  0  0  0  0  0  0  0  0
   20.1180  133.1262    1.0271 C   0  0  0  0  0  0  0  0  0  0  0  0
   20.4876  133.0006   -0.3298 C   0  0  0  0  0  0  0  0  0  0  0  0
   21.0099  135.4641    1.2001 N   0  0  0  0  0  0  0  0  0  0  0  0
   22.0981  136.2172    1.8114 C   0  0  0  0  0  0  0  0  0  0  0  0
   22.0759  137.6023    1.1376 C   0  0  0  0  0  0  0  0  0  0  0  0
   21.3251  137.4192   -0.1965 C   0  0  1  0  0  0  0  0  0  0  0  0
   22.2969  137.2012   -1.2934 N   0  3  0  0  0  0  0  0  0  0  0  0
   21.7122  136.7355   -2.5622 C   0  0  0  0  0  0  0  0  0  0  0  0
   20.7817  137.7655   -3.2204 C   0  0  0  0  0  0  0  0  0  0  0  0
   20.4795  137.3593   -4.6413 C   0  0  0  0  0  0  0  0  0  0  0  0
   21.2765  137.6551   -5.7270 C   0  0  0  0  0  0  0  0  0  0  0  0
   20.7703  137.0696   -6.8305 N   0  0  0  0  0  0  0  0  0  0  0  0
   19.6738  136.4170   -6.3922 C   0  0  0  0  0  0  0  0  0  0  0  0
   19.4747  136.5607   -5.0659 N   0  0  0  0  0  0  0  0  0  0  0  0
   18.3524  135.9932   -4.3154 C   0  0  0  0  0  0  0  0  0  0  0  0
   20.5087  136.2092    0.1032 C   0  0  0  0  0  0  0  0  0  0  0  0
   19.4211  135.9376   -0.4723 O   0  0  0  0  0  0  0  0  0  0  0  0
   18.2209  130.7172   -3.5744 H   0  0  0  0  0  0  0  0  0  0  0  0
   16.4751  131.9271   -4.7483 H   0  0  0  0  0  0  0  0  0  0  0  0
   17.8792  131.8524   -5.5786 H   0  0  0  0  0  0  0  0  0  0  0  0
   16.7274  134.2064   -5.3523 H   0  0  0  0  0  0  0  0  0  0  0  0
   19.3999  134.1447   -2.4972 H   0  0  0  0  0  0  0  0  0  0  0  0
   20.4096  134.1957   -3.7796 H   0  0  0  0  0  0  0  0  0  0  0  0
   19.9982  132.0663   -4.3448 H   0  0  0  0  0  0  0  0  0  0  0  0
   19.3209  129.9446   -0.9329 H   0  0  0  0  0  0  0  0  0  0  0  0
   18.7558  130.0846    1.3830 H   0  0  0  0  0  0  0  0  0  0  0  0
   18.6541  131.3308    3.4475 H   0  0  0  0  0  0  0  0  0  0  0  0
   19.1008  133.3130    4.7005 H   0  0  0  0  0  0  0  0  0  0  0  0
   20.1682  135.1768    3.6675 H   0  0  0  0  0  0  0  0  0  0  0  0
   21.0091  133.7312   -0.7706 H   0  0  0  0  0  0  0  0  0  0  0  0
   22.9731  135.7626    1.6454 H   0  0  0  0  0  0  0  0  0  0  0  0
   21.9503  136.3062    2.7964 H   0  0  0  0  0  0  0  0  0  0  0  0
   23.0088  137.9211    0.9696 H   0  0  0  0  0  0  0  0  0  0  0  0
   21.5975  138.2621    1.7170 H   0  0  0  0  0  0  0  0  0  0  0  0
   20.7398  138.2069   -0.3885 H   0  0  0  0  0  0  0  0  0  0  0  0
   22.9602  136.5177   -0.9885 H   0  0  0  0  0  0  0  0  0  0  0  0
   22.7665  138.0667   -1.4678 H   0  0  0  0  0  0  0  0  0  0  0  0
   21.1874  135.9035   -2.3827 H   0  0  0  0  0  0  0  0  0  0  0  0
   22.4566  136.5295   -3.1974 H   0  0  0  0  0  0  0  0  0  0  0  0
   21.2270  138.6609   -3.2202 H   0  0  0  0  0  0  0  0  0  0  0  0
   19.9277  137.8178   -2.7028 H   0  0  0  0  0  0  0  0  0  0  0  0
   22.1030  138.2174   -5.6999 H   0  0  0  0  0  0  0  0  0  0  0  0
   19.0727  135.8835   -6.9872 H   0  0  0  0  0  0  0  0  0  0  0  0
   17.4951  136.2665   -4.7516 H   0  0  0  0  0  0  0  0  0  0  0  0
   18.3754  136.3416   -3.3783 H   0  0  0  0  0  0  0  0  0  0  0  0
  1  2  3  0  0  0  0
  2  3  1  0  0  0  0
  3  4  1  0  0  0  0
  4  5  1  0  0  0  0
  5  6  2  0  0  0  0
  6  7  1  0  0  0  0
  7  8  1  0  0  0  0
  8  9  1  0  0  0  0
  9 10  1  0  0  0  0
 10 11  2  0  0  0  0
 11 12  1  0  0  0  0
 12 13  2  0  0  0  0
 13 14  1  0  0  0  0
 14 15  2  0  0  0  0
 15 16  1  0  0  0  0
 16 17  2  0  0  0  0
 17 18  1  0  0  0  0
 18 19  2  0  0  0  0
 17 20  1  0  0  0  0
 20 21  1  0  0  0  0
 21 22  1  0  0  0  0
 22 23  1  0  0  0  0
 23 24  1  0  0  0  0
 24 25  1  0  0  0  0
 25 26  1  0  0  0  0
 26 27  1  0  0  0  0
 27 28  2  0  0  0  0
 28 29  1  0  0  0  0
 29 30  2  0  0  0  0
 30 31  1  0  0  0  0
 31 32  1  0  0  0  0
 23 33  1  0  0  0  0
 33 34  2  0  0  0  0
  8  3  1  0  0  0  0
 19 10  1  0  0  0  0
 33 20  1  0  0  0  0
 32  6  1  0  0  0  0
 18 13  1  0  0  0  0
 31 27  1  0  0  0  0
  3 35  1  0  0  0  0
  4 36  1  0  0  0  0
  4 37  1  0  0  0  0
  5 38  1  0  0  0  0
  7 39  1  0  0  0  0
  7 40  1  0  0  0  0
  8 41  1  0  0  0  0
 11 42  1  0  0  0  0
 12 43  1  0  0  0  0
 14 44  1  0  0  0  0
 15 45  1  0  0  0  0
 16 46  1  0  0  0  0
 19 47  1  0  0  0  0
 21 48  1  0  0  0  0
 21 49  1  0  0  0  0
 22 50  1  0  0  0  0
 22 51  1  0  0  0  0
 23 52  1  0  0  0  0
 24 53  1  0  0  0  0
 24 54  1  0  0  0  0
 25 55  1  0  0  0  0
 25 56  1  0  0  0  0
 26 57  1  0  0  0  0
 26 58  1  0  0  0  0
 28 59  1  0  0  0  0
 30 60  1  0  0  0  0
 32 61  1  0  0  0  0
 32 62  1  0  0  0  0
M  CHG  1  24   1
M  END
>  <docking-score>
-16.46

$$$$
1LD7_U66_3
foFlexX   03192112233D 1   1.00000     0.00000     0
FlexX 4.5.0 fol007
 62 67  0  0  0  0            999 V2000
   15.8235  137.3049   -2.8566 N   0  0  0  0  0  0  0  0  0  0  0  0
   16.1008  137.6131   -1.7760 C   0  0  0  0  0  0  0  0  0  0  0  0
   16.4507  138.0027   -0.3948 C   0  0  1  0  0  0  0  0  0  0  0  0
   15.5651  137.2316    0.5979 C   0  0  0  0  0  0  0  0  0  0  0  0
   15.9164  135.7628    0.6426 C   0  0  0  0  0  0  0  0  0  0  0  0
   17.1510  135.2984    0.3450 C   0  0  0  0  0  0  0  0  0  0  0  0
   18.2575  136.2162   -0.1360 C   0  0  0  0  0  0  0  0  0  0  0  0
   17.9301  137.7177   -0.0488 C   0  0  1  0  0  0  0  0  0  0  0  0
   18.8603  138.5197   -0.7990 O   0  0  0  0  0  0  0  0  0  0  0  0
   18.9923  138.5039   -2.1940 C   0  0  0  0  0  0  0  0  0  0  0  0
   18.3461  139.4838   -2.9505 C   0  0  0  0  0  0  0  0  0  0  0  0
   18.4137  139.4582   -4.3419 C   0  0  0  0  0  0  0  0  0  0  0  0
   19.1320  138.4477   -4.9974 C   0  0  0  0  0  0  0  0  0  0  0  0
   19.1664  138.4173   -6.3973 C   0  0  0  0  0  0  0  0  0  0  0  0
   19.8687  137.4153   -7.0599 C   0  0  0  0  0  0  0  0  0  0  0  0
   20.5448  136.4346   -6.3371 C   0  0  0  0  0  0  0  0  0  0  0  0
   20.5400  136.4385   -4.9310 C   0  0  0  0  0  0  0  0  0  0  0  0
   19.8255  137.4602   -4.2444 C   0  0  0  0  0  0  0  0  0  0  0  0
   19.7837  137.5366   -2.8352 C   0  0  0  0  0  0  0  0  0  0  0  0
   21.2419  135.3902   -4.2312 N   0  0  0  0  0  0  0  0  0  0  0  0
   22.5954  134.9438   -4.5371 C   0  0  0  0  0  0  0  0  0  0  0  0
   22.7132  133.5298   -3.9374 C   0  0  0  0  0  0  0  0  0  0  0  0
   21.6146  133.4269   -2.8605 C   0  0  1  0  0  0  0  0  0  0  0  0
   22.1847  133.7445   -1.5303 N   0  3  0  0  0  0  0  0  0  0  0  0
   21.1944  133.9578   -0.4615 C   0  0  0  0  0  0  0  0  0  0  0  0
   20.3841  132.6983   -0.1193 C   0  0  0  0  0  0  0  0  0  0  0  0
   19.6318  132.8996    1.1725 C   0  0  0  0  0  0  0  0  0  0  0  0
   20.1585  132.6814    2.4281 C   0  0  0  0  0  0  0  0  0  0  0  0
   19.2581  133.0429    3.3636 N   0  0  0  0  0  0  0  0  0  0  0  0
   18.1977  133.4857    2.6567 C   0  0  0  0  0  0  0  0  0  0  0  0
   18.3954  133.4250    1.3238 N   0  0  0  0  0  0  0  0  0  0  0  0
   17.4129  133.8080    0.3074 C   0  0  0  0  0  0  0  0  0  0  0  0
   20.6523  134.4587   -3.3399 C   0  0  0  0  0  0  0  0  0  0  0  0
   19.4190  134.4400   -3.0824 O   0  0  0  0  0  0  0  0  0  0  0  0
   16.2786  138.9816   -0.2845 H   0  0  0  0  0  0  0  0  0  0  0  0
   14.6092  137.3272    0.3202 H   0  0  0  0  0  0  0  0  0  0  0  0
   15.6876  137.6213    1.5107 H   0  0  0  0  0  0  0  0  0  0  0  0
   15.2072  135.1076    0.9029 H   0  0  0  0  0  0  0  0  0  0  0  0
   18.4527  135.9948   -1.0915 H   0  0  0  0  0  0  0  0  0  0  0  0
   19.0706  136.0418    0.4194 H   0  0  0  0  0  0  0  0  0  0  0  0
   18.0482  137.9749    0.9103 H   0  0  0  0  0  0  0  0  0  0  0  0
   17.8318  140.2079   -2.4910 H   0  0  0  0  0  0  0  0  0  0  0  0
   17.9477  140.1638   -4.8757 H   0  0  0  0  0  0  0  0  0  0  0  0
   18.6844  139.1184   -6.9227 H   0  0  0  0  0  0  0  0  0  0  0  0
   19.8883  137.3989   -8.0596 H   0  0  0  0  0  0  0  0  0  0  0  0
   21.0411  135.7171   -6.8257 H   0  0  0  0  0  0  0  0  0  0  0  0
   20.3227  136.8960   -2.2883 H   0  0  0  0  0  0  0  0  0  0  0  0
   23.2671  135.5563   -4.1205 H   0  0  0  0  0  0  0  0  0  0  0  0
   22.7382  134.9160   -5.5265 H   0  0  0  0  0  0  0  0  0  0  0  0
   23.6154  133.4019   -3.5256 H   0  0  0  0  0  0  0  0  0  0  0  0
   22.5694  132.8394   -4.6464 H   0  0  0  0  0  0  0  0  0  0  0  0
   21.1957  132.5189   -2.8625 H   0  0  0  0  0  0  0  0  0  0  0  0
   22.7303  134.5779   -1.6180 H   0  0  0  0  0  0  0  0  0  0  0  0
   22.7764  132.9859   -1.2577 H   0  0  0  0  0  0  0  0  0  0  0  0
   20.5598  134.6726   -0.7554 H   0  0  0  0  0  0  0  0  0  0  0  0
   21.6764  134.2578    0.3617 H   0  0  0  0  0  0  0  0  0  0  0  0
   21.0061  131.9214   -0.0219 H   0  0  0  0  0  0  0  0  0  0  0  0
   19.7331  132.5138   -0.8556 H   0  0  0  0  0  0  0  0  0  0  0  0
   21.0686  132.3117    2.6156 H   0  0  0  0  0  0  0  0  0  0  0  0
   17.3550  133.8230    3.0762 H   0  0  0  0  0  0  0  0  0  0  0  0
   16.5568  133.3206    0.4793 H   0  0  0  0  0  0  0  0  0  0  0  0
   17.7623  133.5596   -0.5960 H   0  0  0  0  0  0  0  0  0  0  0  0
  1  2  3  0  0  0  0
  2  3  1  0  0  0  0
  3  4  1  0  0  0  0
  4  5  1  0  0  0  0
  5  6  2  0  0  0  0
  6  7  1  0  0  0  0
  7  8  1  0  0  0  0
  8  9  1  0  0  0  0
  9 10  1  0  0  0  0
 10 11  2  0  0  0  0
 11 12  1  0  0  0  0
 12 13  2  0  0  0  0
 13 14  1  0  0  0  0
 14 15  2  0  0  0  0
 15 16  1  0  0  0  0
 16 17  2  0  0  0  0
 17 18  1  0  0  0  0
 18 19  2  0  0  0  0
 17 20  1  0  0  0  0
 20 21  1  0  0  0  0
 21 22  1  0  0  0  0
 22 23  1  0  0  0  0
 23 24  1  0  0  0  0
 24 25  1  0  0  0  0
 25 26  1  0  0  0  0
 26 27  1  0  0  0  0
 27 28  2  0  0  0  0
 28 29  1  0  0  0  0
 29 30  2  0  0  0  0
 30 31  1  0  0  0  0
 31 32  1  0  0  0  0
 23 33  1  0  0  0  0
 33 34  2  0  0  0  0
  8  3  1  0  0  0  0
 19 10  1  0  0  0  0
 33 20  1  0  0  0  0
 32  6  1  0  0  0  0
 18 13  1  0  0  0  0
 31 27  1  0  0  0  0
  3 35  1  0  0  0  0
  4 36  1  0  0  0  0
  4 37  1  0  0  0  0
  5 38  1  0  0  0  0
  7 39  1  0  0  0  0
  7 40  1  0  0  0  0
  8 41  1  0  0  0  0
 11 42  1  0  0  0  0
 12 43  1  0  0  0  0
 14 44  1  0  0  0  0
 15 45  1  0  0  0  0
 16 46  1  0  0  0  0
 19 47  1  0  0  0  0
 21 48  1  0  0  0  0
 21 49  1  0  0  0  0
 22 50  1  0  0  0  0
 22 51  1  0  0  0  0
 23 52  1  0  0  0  0
 24 53  1  0  0  0  0
 24 54  1  0  0  0  0
 25 55  1  0  0  0  0
 25 56  1  0  0  0  0
 26 57  1  0  0  0  0
 26 58  1  0  0  0  0
 28 59  1  0  0  0  0
 30 60  1  0  0  0  0
 32 61  1  0  0  0  0
 32 62  1  0  0  0  0
M  CHG  1  24   1
M  END
>  <docking-score>
-15.89

$$$$
1S63_778_1
foFlexX   03192112233D 1   1.00000     0.00000     0
FlexX 4.5.0 fol007
 50 53  0  0  0  0            999 V2000
   16.2461  131.1574   -6.0379 N   0  0  0  0  0  0  0  0  0  0  0  0
   17.0371  131.4457   -5.2442 C   0  0  0  0  0  0  0  0  0  0  0  0
   18.0212  131.8044   -4.2569 C   0  0  0  0  0  0  0  0  0  0  0  0
   19.2677  132.2629   -4.6713 C   0  0  0  0  0  0  0  0  0  0  0  0
   20.2281  132.6138   -3.7286 C   0  0  0  0  0  0  0  0  0  0  0  0
   19.9248  132.4993   -2.3758 C   0  0  0  0  0  0  0  0  0  0  0  0
   20.9658  132.8779   -1.3350 C   0  0  0  0  0  0  0  0  0  0  0  0
   21.8452  133.9315   -1.8468 N   0  0  0  0  0  0  0  0  0  0  0  0
   22.6332  133.8333   -2.9563 C   0  0  0  0  0  0  0  0  0  0  0  0
   23.2717  134.9740   -3.0971 N   0  0  0  0  0  0  0  0  0  0  0  0
   22.9037  135.8144   -2.0846 C   0  0  0  0  0  0  0  0  0  0  0  0
   22.0043  135.1640   -1.2911 C   0  0  0  0  0  0  0  0  0  0  0  0
   21.3201  135.7107   -0.0489 C   0  0  0  0  0  0  0  0  0  0  0  0
   22.1002  135.4253    1.1834 N   0  3  1  0  0  0  0  0  0  0  0  0
   22.5550  136.6492    1.8601 C   0  0  0  0  0  0  0  0  0  0  0  0
   21.3690  137.5248    2.2248 C   0  0  0  0  0  0  0  0  0  0  0  0
   20.2892  136.7833    2.9003 N   0  0  0  0  0  0  0  0  0  0  0  0
   19.3093  137.5100    3.5909 C   0  0  0  0  0  0  0  0  0  0  0  0
   19.1337  137.2962    4.9544 C   0  0  0  0  0  0  0  0  0  0  0  0
   18.1610  138.0212    5.6350 C   0  0  0  0  0  0  0  0  0  0  0  0
   17.3687  138.9504    4.9694 C   0  0  0  0  0  0  0  0  0  0  0  0
   17.5614  139.1487    3.6060 C   0  0  0  0  0  0  0  0  0  0  0  0
   16.5581  140.3336    2.7360 Cl  0  0  0  0  0  0  0  0  0  0  0  0
   18.5282  138.4346    2.9058 C   0  0  0  0  0  0  0  0  0  0  0  0
   20.2349  135.3854    2.8527 C   0  0  0  0  0  0  0  0  0  0  0  0
   19.3240  134.7524    3.3614 O   0  0  0  0  0  0  0  0  0  0  0  0
   21.3471  134.6134    2.1576 C   0  0  0  0  0  0  0  0  0  0  0  0
   18.6798  132.0406   -1.9579 C   0  0  0  0  0  0  0  0  0  0  0  0
   17.7208  131.6908   -2.9033 C   0  0  0  0  0  0  0  0  0  0  0  0
   19.4730  132.3402   -5.6470 H   0  0  0  0  0  0  0  0  0  0  0  0
   21.1259  132.9445   -4.0196 H   0  0  0  0  0  0  0  0  0  0  0  0
   21.5140  132.0723   -1.1101 H   0  0  0  0  0  0  0  0  0  0  0  0
   20.5032  133.2067   -0.5117 H   0  0  0  0  0  0  0  0  0  0  0  0
   22.7111  133.0363   -3.5552 H   0  0  0  0  0  0  0  0  0  0  0  0
   23.2368  136.7474   -1.9484 H   0  0  0  0  0  0  0  0  0  0  0  0
   20.4172  135.2892    0.0350 H   0  0  0  0  0  0  0  0  0  0  0  0
   21.2181  136.7008   -0.1451 H   0  0  0  0  0  0  0  0  0  0  0  0
   22.9117  134.9054    0.9165 H   0  0  0  0  0  0  0  0  0  0  0  0
   23.1636  137.1564    1.2498 H   0  0  0  0  0  0  0  0  0  0  0  0
   23.0495  136.4008    2.6930 H   0  0  0  0  0  0  0  0  0  0  0  0
   21.6856  138.2517    2.8343 H   0  0  0  0  0  0  0  0  0  0  0  0
   21.0020  137.9287    1.3869 H   0  0  0  0  0  0  0  0  0  0  0  0
   19.6999  136.6296    5.4392 H   0  0  0  0  0  0  0  0  0  0  0  0
   18.0297  137.8724    6.6151 H   0  0  0  0  0  0  0  0  0  0  0  0
   16.6707  139.4685    5.4637 H   0  0  0  0  0  0  0  0  0  0  0  0
   18.6596  138.5837    1.9258 H   0  0  0  0  0  0  0  0  0  0  0  0
   21.9842  134.2798    2.8525 H   0  0  0  0  0  0  0  0  0  0  0  0
   20.9414  133.8362    1.6767 H   0  0  0  0  0  0  0  0  0  0  0  0
   18.4750  131.9626   -0.9822 H   0  0  0  0  0  0  0  0  0  0  0  0
   16.8230  131.3605   -2.6121 H   0  0  0  0  0  0  0  0  0  0  0  0
  1  2  3  0  0  0  0
  2  3  1  0  0  0  0
  3  4  2  0  0  0  0
  4  5  1  0  0  0  0
  5  6  2  0  0  0  0
  6  7  1  0  0  0  0
  7  8  1  0  0  0  0
  8  9  1  0  0  0  0
  9 10  2  0  0  0  0
 10 11  1  0  0  0  0
 11 12  2  0  0  0  0
 12 13  1  0  0  0  0
 13 14  1  0  0  0  0
 14 15  1  0  0  0  0
 15 16  1  0  0  0  0
 16 17  1  0  0  0  0
 17 18  1  0  0  0  0
 18 19  2  0  0  0  0
 19 20  1  0  0  0  0
 20 21  2  0  0  0  0
 21 22  1  0  0  0  0
 22 23  1  0  0  0  0
 22 24  2  0  0  0  0
 17 25  1  0  0  0  0
 25 26  2  0  0  0  0
 25 27  1  0  0  0  0
  6 28  1  0  0  0  0
 28 29  2  0  0  0  0
 29  3  1  0  0  0  0
 12  8  1  0  0  0  0
 27 14  1  0  0  0  0
 24 18  1  0  0  0  0
  4 30  1  0  0  0  0
  5 31  1  0  0  0  0
  7 32  1  0  0  0  0
  7 33  1  0  0  0  0
  9 34  1  0  0  0  0
 11 35  1  0  0  0  0
 13 36  1  0  0  0  0
 13 37  1  0  0  0  0
 14 38  1  0  0  0  0
 15 39  1  0  0  0  0
 15 40  1  0  0  0  0
 16 41  1  0  0  0  0
 16 42  1  0  0  0  0
 19 43  1  0  0  0  0
 20 44  1  0  0  0  0
 21 45  1  0  0  0  0
 24 46  1  0  0  0  0
 27 47  1  0  0  0  0
 27 48  1  0  0  0  0
 28 49  1  0  0  0  0
 29 50  1  0  0  0  0
M  CHG  1  14   1
M  END
>  <docking-score>
-20.00

$$$$
1S63_778_2
foFlexX   03192112233D 1   1.00000     0.00000     0
FlexX 4.5.0 fol007
 50 53  0  0  0  0            999 V2000
   16.6070  131.0317   -5.9359 N   0  0  0  0  0  0  0  0  0  0  0  0
   17.3900  131.3742   -5.1560 C   0  0  0  0  0  0  0  0  0  0  0  0
   18.3642  131.8003   -4.1857 C   0  0  0  0  0  0  0  0  0  0  0  0
   19.6447  132.1419   -4.6094 C   0  0  0  0  0  0  0  0  0  0  0  0
   20.5961  132.5560   -3.6833 C   0  0  0  0  0  0  0  0  0  0  0  0
   20.2495  132.6221   -2.3377 C   0  0  0  0  0  0  0  0  0  0  0  0
   21.2801  133.0716   -1.3149 C   0  0  0  0  0  0  0  0  0  0  0  0
   22.2290  134.0096   -1.9190 N   0  0  0  0  0  0  0  0  0  0  0  0
   23.0410  133.7379   -2.9812 C   0  0  0  0  0  0  0  0  0  0  0  0
   23.7440  134.8195   -3.2359 N   0  0  0  0  0  0  0  0  0  0  0  0
   23.3938  135.7941   -2.3446 C   0  0  0  0  0  0  0  0  0  0  0  0
   22.4389  135.2910   -1.5101 C   0  0  0  0  0  0  0  0  0  0  0  0
   21.7510  136.0183   -0.3664 C   0  0  0  0  0  0  0  0  0  0  0  0
   21.9768  135.3398    0.9363 N   0  3  1  0  0  0  0  0  0  0  0  0
   22.0385  136.2843    2.0619 C   0  0  0  0  0  0  0  0  0  0  0  0
   20.7547  137.0909    2.1475 C   0  0  0  0  0  0  0  0  0  0  0  0
   19.5419  136.2563    2.0779 N   0  0  0  0  0  0  0  0  0  0  0  0
   18.3222  136.8133    2.4867 C   0  0  0  0  0  0  0  0  0  0  0  0
   18.1822  137.2674    3.7943 C   0  0  0  0  0  0  0  0  0  0  0  0
   16.9702  137.8207    4.1941 C   0  0  0  0  0  0  0  0  0  0  0  0
   15.9056  137.9230    3.3051 C   0  0  0  0  0  0  0  0  0  0  0  0
   16.0674  137.4630    2.0022 C   0  0  0  0  0  0  0  0  0  0  0  0
   14.7173  137.5852    0.8490 Cl  0  0  0  0  0  0  0  0  0  0  0  0
   17.2706  136.9063    1.5812 C   0  0  0  0  0  0  0  0  0  0  0  0
   19.5994  134.9383    1.6101 C   0  0  0  0  0  0  0  0  0  0  0  0
   18.6017  134.2447    1.4963 O   0  0  0  0  0  0  0  0  0  0  0  0
   20.9443  134.3308    1.2382 C   0  0  0  0  0  0  0  0  0  0  0  0
   18.9704  132.2808   -1.9106 C   0  0  0  0  0  0  0  0  0  0  0  0
   18.0206  131.8673   -2.8393 C   0  0  0  0  0  0  0  0  0  0  0  0
   19.8809  132.0896   -5.5797 H   0  0  0  0  0  0  0  0  0  0  0  0
   21.5181  132.8033   -3.9811 H   0  0  0  0  0  0  0  0  0  0  0  0
   21.7775  132.2728   -0.9765 H   0  0  0  0  0  0  0  0  0  0  0  0
   20.8132  133.5209   -0.5532 H   0  0  0  0  0  0  0  0  0  0  0  0
   23.0924  132.8711   -3.4773 H   0  0  0  0  0  0  0  0  0  0  0  0
   23.7729  136.7188   -2.3099 H   0  0  0  0  0  0  0  0  0  0  0  0
   20.7682  136.0505   -0.5483 H   0  0  0  0  0  0  0  0  0  0  0  0
   22.1107  136.9498   -0.3126 H   0  0  0  0  0  0  0  0  0  0  0  0
   22.8574  134.8686    0.8857 H   0  0  0  0  0  0  0  0  0  0  0  0
   22.8100  136.9063    1.9281 H   0  0  0  0  0  0  0  0  0  0  0  0
   22.1648  135.7748    2.9130 H   0  0  0  0  0  0  0  0  0  0  0  0
   20.7489  137.5890    3.0147 H   0  0  0  0  0  0  0  0  0  0  0  0
   20.7368  137.7423    1.3890 H   0  0  0  0  0  0  0  0  0  0  0  0
   18.9435  137.1970    4.4388 H   0  0  0  0  0  0  0  0  0  0  0  0
   16.8630  138.1491    5.1326 H   0  0  0  0  0  0  0  0  0  0  0  0
   15.0365  138.3213    3.5982 H   0  0  0  0  0  0  0  0  0  0  0  0
   17.3778  136.5782    0.6427 H   0  0  0  0  0  0  0  0  0  0  0  0
   21.2620  133.7707    2.0033 H   0  0  0  0  0  0  0  0  0  0  0  0
   20.8195  133.7532    0.4315 H   0  0  0  0  0  0  0  0  0  0  0  0
   18.7347  132.3324   -0.9401 H   0  0  0  0  0  0  0  0  0  0  0  0
   17.0985  131.6204   -2.5415 H   0  0  0  0  0  0  0  0  0  0  0  0
  1  2  3  0  0  0  0
  2  3  1  0  0  0  0
  3  4  2  0  0  0  0
  4  5  1  0  0  0  0
  5  6  2  0  0  0  0
  6  7  1  0  0  0  0
  7  8  1  0  0  0  0
  8  9  1  0  0  0  0
  9 10  2  0  0  0  0
 10 11  1  0  0  0  0
 11 12  2  0  0  0  0
 12 13  1  0  0  0  0
 13 14  1  0  0  0  0
 14 15  1  0  0  0  0
 15 16  1  0  0  0  0
 16 17  1  0  0  0  0
 17 18  1  0  0  0  0
 18 19  2  0  0  0  0
 19 20  1  0  0  0  0
 20 21  2  0  0  0  0
 21 22  1  0  0  0  0
 22 23  1  0  0  0  0
 22 24  2  0  0  0  0
 17 25  1  0  0  0  0
 25 26  2  0  0  0  0
 25 27  1  0  0  0  0
  6 28  1  0  0  0  0
 28 29  2  0  0  0  0
 29  3  1  0  0  0  0
 12  8  1  0  0  0  0
 27 14  1  0  0  0  0
 24 18  1  0  0  0  0
  4 30  1  0  0  0  0
  5 31  1  0  0  0  0
  7 32  1  0  0  0  0
  7 33  1  0  0  0  0
  9 34  1  0  0  0  0
 11 35  1  0  0  0  0
 13 36  1  0  0  0  0
 13 37  1  0  0  0  0
 14 38  1  0  0  0  0
 15 39  1  0  0  0  0
 15 40  1  0  0  0  0
 16 41  1  0  0  0  0
 16 42  1  0  0  0  0
 19 43  1  0  0  0  0
 20 44  1  0  0  0  0
 21 45  1  0  0  0  0
 24 46  1  0  0  0  0
 27 47  1  0  0  0  0
 27 48  1  0  0  0  0
 28 49  1  0  0  0  0
 29 50  1  0  0  0  0
M  CHG  1  14   1
M  END
>  <docking-score>
-19.82

$$$$
1S63_778_3
foFlexX   03192112233D 1   1.00000     0.00000     0
FlexX 4.5.0 fol007
 50 53  0  0  0  0            999 V2000
   12.5099  138.8258    2.4981 N   0  0  0  0  0  0  0  0  0  0  0  0
   13.4130  138.1726    2.1865 C   0  0  0  0  0  0  0  0  0  0  0  0
   14.5990  137.3147    1.7771 C   0  0  0  0  0  0  0  0  0  0  0  0
   15.6660  137.1615    2.6568 C   0  0  0  0  0  0  0  0  0  0  0  0
   16.7577  136.3789    2.2961 C   0  0  0  0  0  0  0  0  0  0  0  0
   16.7655  135.7576    1.0515 C   0  0  0  0  0  0  0  0  0  0  0  0
   17.9420  134.9088    0.6477 C   0  0  0  0  0  0  0  0  0  0  0  0
   18.5650  134.2942    1.8294 N   0  0  0  0  0  0  0  0  0  0  0  0
   17.9432  133.4476    2.7001 C   0  0  0  0  0  0  0  0  0  0  0  0
   18.8171  133.1069    3.6216 N   0  0  0  0  0  0  0  0  0  0  0  0
   20.0048  133.7277    3.3553 C   0  0  0  0  0  0  0  0  0  0  0  0
   19.8539  134.4790    2.2265 C   0  0  0  0  0  0  0  0  0  0  0  0
   20.9031  135.3300    1.5588 C   0  0  0  0  0  0  0  0  0  0  0  0
   21.6692  134.5716    0.5621 N   0  3  1  0  0  0  0  0  0  0  0  0
   21.1899  133.1785    0.6689 C   0  0  0  0  0  0  0  0  0  0  0  0
   20.8520  132.4708   -0.6421 C   0  0  0  0  0  0  0  0  0  0  0  0
   20.0055  133.3306   -1.4803 N   0  0  0  0  0  0  0  0  0  0  0  0
   18.9418  132.7683   -2.1968 C   0  0  0  0  0  0  0  0  0  0  0  0
   17.6847  132.6908   -1.6060 C   0  0  0  0  0  0  0  0  0  0  0  0
   16.6313  132.1327   -2.3229 C   0  0  0  0  0  0  0  0  0  0  0  0
   16.8226  131.6552   -3.6150 C   0  0  0  0  0  0  0  0  0  0  0  0
   18.0878  131.7429   -4.1869 C   0  0  0  0  0  0  0  0  0  0  0  0
   18.3532  131.1381   -5.8395 Cl  0  0  0  0  0  0  0  0  0  0  0  0
   19.1551  132.2972   -3.4880 C   0  0  0  0  0  0  0  0  0  0  0  0
   20.2926  134.7017   -1.5398 C   0  0  0  0  0  0  0  0  0  0  0  0
   19.5965  135.4463   -2.2159 O   0  0  0  0  0  0  0  0  0  0  0  0
   21.4644  135.2499   -0.7378 C   0  0  0  0  0  0  0  0  0  0  0  0
   15.7008  135.9091    0.1693 C   0  0  0  0  0  0  0  0  0  0  0  0
   14.6098  136.6922    0.5331 C   0  0  0  0  0  0  0  0  0  0  0  0
   15.6479  137.6140    3.5484 H   0  0  0  0  0  0  0  0  0  0  0  0
   17.5277  136.2643    2.9237 H   0  0  0  0  0  0  0  0  0  0  0  0
   18.6160  135.4815    0.1811 H   0  0  0  0  0  0  0  0  0  0  0  0
   17.6306  134.1884    0.0281 H   0  0  0  0  0  0  0  0  0  0  0  0
   16.9929  133.1410    2.6469 H   0  0  0  0  0  0  0  0  0  0  0  0
   20.8421  133.6454    3.8958 H   0  0  0  0  0  0  0  0  0  0  0  0
   21.5316  135.6748    2.2560 H   0  0  0  0  0  0  0  0  0  0  0  0
   20.4543  136.0997    1.1047 H   0  0  0  0  0  0  0  0  0  0  0  0
   22.6399  134.6040    0.8000 H   0  0  0  0  0  0  0  0  0  0  0  0
   20.3641  133.1838    1.2328 H   0  0  0  0  0  0  0  0  0  0  0  0
   21.9025  132.6464    1.1263 H   0  0  0  0  0  0  0  0  0  0  0  0
   21.6983  132.2620   -1.1322 H   0  0  0  0  0  0  0  0  0  0  0  0
   20.3642  131.6210   -0.4423 H   0  0  0  0  0  0  0  0  0  0  0  0
   17.5400  133.0321   -0.6772 H   0  0  0  0  0  0  0  0  0  0  0  0
   15.7252  132.0741   -1.9040 H   0  0  0  0  0  0  0  0  0  0  0  0
   16.0618  131.2547   -4.1257 H   0  0  0  0  0  0  0  0  0  0  0  0
   20.0612  132.3560   -3.9071 H   0  0  0  0  0  0  0  0  0  0  0  0
   22.2962  135.1443   -1.2827 H   0  0  0  0  0  0  0  0  0  0  0  0
   21.3006  136.2210   -0.5642 H   0  0  0  0  0  0  0  0  0  0  0  0
   15.7194  135.4572   -0.7226 H   0  0  0  0  0  0  0  0  0  0  0  0
   13.8397  136.8065   -0.0945 H   0  0  0  0  0  0  0  0  0  0  0  0
  1  2  3  0  0  0  0
  2  3  1  0  0  0  0
  3  4  2  0  0  0  0
  4  5  1  0  0  0  0
  5  6  2  0  0  0  0
  6  7  1  0  0  0  0
  7  8  1  0  0  0  0
  8  9  1  0  0  0  0
  9 10  2  0  0  0  0
 10 11  1  0  0  0  0
 11 12  2  0  0  0  0
 12 13  1  0  0  0  0
 13 14  1  0  0  0  0
 14 15  1  0  0  0  0
 15 16  1  0  0  0  0
 16 17  1  0  0  0  0
 17 18  1  0  0  0  0
 18 19  2  0  0  0  0
 19 20  1  0  0  0  0
 20 21  2  0  0  0  0
 21 22  1  0  0  0  0
 22 23  1  0  0  0  0
 22 24  2  0  0  0  0
 17 25  1  0  0  0  0
 25 26  2  0  0  0  0
 25 27  1  0  0  0  0
  6 28  1  0  0  0  0
 28 29  2  0  0  0  0
 29  3  1  0  0  0  0
 12  8  1  0  0  0  0
 27 14  1  0  0  0  0
 24 18  1  0  0  0  0
  4 30  1  0  0  0  0
  5 31  1  0  0  0  0
  7 32  1  0  0  0  0
  7 33  1  0  0  0  0
  9 34  1  0  0  0  0
 11 35  1  0  0  0  0
 13 36  1  0  0  0  0
 13 37  1  0  0  0  0
 14 38  1  0  0  0  0
 15 39  1  0  0  0  0
 15 40  1  0  0  0  0
 16 41  1  0  0  0  0
 16 42  1  0  0  0  0
 19 43  1  0  0  0  0
 20 44  1  0  0  0  0
 21 45  1  0  0  0  0
 24 46  1  0  0  0  0
 27 47  1  0  0  0  0
 27 48  1  0  0  0  0
 28 49  1  0  0  0  0
 29 50  1  0  0  0  0
M  CHG  1  14   1
M  END
>  <docking-score>
-18.29

$$$$
3E37_ED5_1
foFlexX   03192112233D 1   1.00000     0.00000     0
FlexX 4.5.0 fol007
 85 88  0  0  0  0            999 V2000
   19.9589  132.9581   -0.4150 C   0  0  0  0  0  0  0  0  0  0  0  0
   20.7937  134.2026   -0.1604 C   0  0  0  0  0  0  0  0  0  0  0  0
   20.7246  134.7973    1.0954 C   0  0  0  0  0  0  0  0  0  0  0  0
   21.4786  135.9370    1.3532 C   0  0  0  0  0  0  0  0  0  0  0  0
   22.2923  136.4717    0.3598 C   0  0  0  0  0  0  0  0  0  0  0  0
   22.3625  135.8785   -0.8966 C   0  0  0  0  0  0  0  0  0  0  0  0
   21.6076  134.7383   -1.1544 C   0  0  0  0  0  0  0  0  0  0  0  0
   21.7102  133.9927   -2.7681 S   0  0  0  0  0  0  0  0  0  0  0  0
   22.8605  134.5313   -3.5716 O   0  0  0  0  0  0  0  0  0  0  0  0
   21.9406  132.5233   -2.5558 O   0  0  0  0  0  0  0  0  0  0  0  0
   20.2085  134.2197   -3.6550 N   0  0  0  0  0  0  0  0  0  0  0  0
   19.2396  133.1249   -3.4312 C   0  0  0  0  0  0  0  0  0  0  0  0
   18.5605  132.6106   -4.7146 C   0  0  0  0  0  0  0  0  0  0  0  0
   17.3303  133.3679   -4.9717 N   0  0  0  0  0  0  0  0  0  0  0  0
   17.3679  134.6964   -5.5930 C   0  0  0  0  0  0  0  0  0  0  0  0
   16.8667  134.6230   -7.0057 C   0  0  0  0  0  0  0  0  0  0  0  0
   17.4028  133.8646   -8.0046 C   0  0  0  0  0  0  0  0  0  0  0  0
   16.6500  134.0866   -9.1195 N   0  0  0  0  0  0  0  0  0  0  0  0
   15.6962  134.9420   -8.8194 C   0  0  0  0  0  0  0  0  0  0  0  0
   15.7963  135.2927   -7.5090 N   0  0  0  0  0  0  0  0  0  0  0  0
   14.9231  136.2232   -6.7781 C   0  0  0  0  0  0  0  0  0  0  0  0
   16.1169  132.8767   -4.4748 C   0  0  0  0  0  0  0  0  0  0  0  0
   14.9701  133.6573   -4.5795 C   0  0  0  0  0  0  0  0  0  0  0  0
   13.7583  133.1819   -4.0896 C   0  0  0  0  0  0  0  0  0  0  0  0
   13.7120  131.9238   -3.4992 C   0  0  0  0  0  0  0  0  0  0  0  0
   12.4639  131.4201   -2.9897 C   0  0  0  0  0  0  0  0  0  0  0  0
   11.4602  131.0145   -2.5814 N   0  0  0  0  0  0  0  0  0  0  0  0
   14.8559  131.1393   -3.3926 C   0  0  0  0  0  0  0  0  0  0  0  0
   16.0661  131.6185   -3.8834 C   0  0  0  0  0  0  0  0  0  0  0  0
   19.6155  135.5576   -3.4382 C   0  0  0  0  0  0  0  0  0  0  0  0
   18.6498  135.5581   -2.2335 C   0  0  0  0  0  0  0  0  0  0  0  0
   17.2309  135.2209   -2.6696 C   0  0  0  0  0  0  0  0  0  0  0  0
   16.3802  135.3544   -1.4182 C   0  0  0  0  0  0  0  0  0  0  0  0
   16.3426  136.7756   -1.0437 N   0  0  0  0  0  0  0  0  0  0  0  0
   15.2962  137.2845   -0.2647 C   0  0  0  0  0  0  0  0  0  0  0  0
   14.1490  136.7656   -0.3346 O   0  0  0  0  0  0  0  0  0  0  0  0
   15.5393  138.3711    0.5917 O   0  0  0  0  0  0  0  0  0  0  0  0
   14.8056  138.7005    1.7805 C   0  0  0  0  0  0  0  0  0  0  0  0
   15.3234  137.7847    2.9002 C   0  0  0  0  0  0  0  0  0  0  0  0
   15.0536  140.1668    2.1826 C   0  0  0  0  0  0  0  0  0  0  0  0
   13.3008  138.4384    1.5796 C   0  0  0  0  0  0  0  0  0  0  0  0
   17.4270  137.6617   -1.4973 C   0  0  0  0  0  0  0  0  0  0  0  0
   18.7238  136.8620   -1.4522 C   0  0  0  0  0  0  0  0  0  0  0  0
   20.1072  132.6432   -1.3525 H   0  0  0  0  0  0  0  0  0  0  0  0
   20.2291  132.2387    0.2249 H   0  0  0  0  0  0  0  0  0  0  0  0
   18.9910  133.1735   -0.2850 H   0  0  0  0  0  0  0  0  0  0  0  0
   20.1380  134.4089    1.8061 H   0  0  0  0  0  0  0  0  0  0  0  0
   21.4360  136.3719    2.2527 H   0  0  0  0  0  0  0  0  0  0  0  0
   22.8325  137.2913    0.5507 H   0  0  0  0  0  0  0  0  0  0  0  0
   22.9492  136.2673   -1.6069 H   0  0  0  0  0  0  0  0  0  0  0  0
   18.5284  133.4573   -2.8117 H   0  0  0  0  0  0  0  0  0  0  0  0
   19.7230  132.3607   -3.0043 H   0  0  0  0  0  0  0  0  0  0  0  0
   18.3362  131.6422   -4.6050 H   0  0  0  0  0  0  0  0  0  0  0  0
   19.1855  132.7225   -5.4872 H   0  0  0  0  0  0  0  0  0  0  0  0
   18.3091  135.0341   -5.5937 H   0  0  0  0  0  0  0  0  0  0  0  0
   16.7896  135.3222   -5.0696 H   0  0  0  0  0  0  0  0  0  0  0  0
   18.1968  133.2609   -7.9329 H   0  0  0  0  0  0  0  0  0  0  0  0
   15.0043  135.2817   -9.4566 H   0  0  0  0  0  0  0  0  0  0  0  0
   15.2345  136.2979   -5.8308 H   0  0  0  0  0  0  0  0  0  0  0  0
   14.9576  137.1233   -7.2123 H   0  0  0  0  0  0  0  0  0  0  0  0
   13.9836  135.8810   -6.7943 H   0  0  0  0  0  0  0  0  0  0  0  0
   15.0170  134.5601   -5.0070 H   0  0  0  0  0  0  0  0  0  0  0  0
   12.9304  133.7382   -4.1611 H   0  0  0  0  0  0  0  0  0  0  0  0
   14.8084  130.2362   -2.9657 H   0  0  0  0  0  0  0  0  0  0  0  0
   16.8941  131.0623   -3.8115 H   0  0  0  0  0  0  0  0  0  0  0  0
   19.1117  135.8270   -4.2590 H   0  0  0  0  0  0  0  0  0  0  0  0
   20.3495  136.2148   -3.2669 H   0  0  0  0  0  0  0  0  0  0  0  0
   18.9485  134.8293   -1.6175 H   0  0  0  0  0  0  0  0  0  0  0  0
   17.1868  134.2870   -3.0244 H   0  0  0  0  0  0  0  0  0  0  0  0
   16.9202  135.8599   -3.3733 H   0  0  0  0  0  0  0  0  0  0  0  0
   15.4532  135.0271   -1.6015 H   0  0  0  0  0  0  0  0  0  0  0  0
   16.7822  134.8183   -0.6759 H   0  0  0  0  0  0  0  0  0  0  0  0
   16.3016  137.9430    3.0348 H   0  0  0  0  0  0  0  0  0  0  0  0
   14.8334  137.9857    3.7485 H   0  0  0  0  0  0  0  0  0  0  0  0
   15.1721  136.8294    2.6463 H   0  0  0  0  0  0  0  0  0  0  0  0
   14.7577  140.7701    1.4420 H   0  0  0  0  0  0  0  0  0  0  0  0
   14.5352  140.3774    3.0114 H   0  0  0  0  0  0  0  0  0  0  0  0
   16.0289  140.3047    2.3554 H   0  0  0  0  0  0  0  0  0  0  0  0
   13.1562  137.4720    1.3672 H   0  0  0  0  0  0  0  0  0  0  0  0
   12.8069  138.6732    2.4168 H   0  0  0  0  0  0  0  0  0  0  0  0
   12.9626  139.0000    0.8244 H   0  0  0  0  0  0  0  0  0  0  0  0
   17.4945  138.4553   -0.8926 H   0  0  0  0  0  0  0  0  0  0  0  0
   17.2480  137.9690   -2.4319 H   0  0  0  0  0  0  0  0  0  0  0  0
   19.4568  137.4225   -1.8376 H   0  0  0  0  0  0  0  0  0  0  0  0
   18.9334  136.6494   -0.4978 H   0  0  0  0  0  0  0  0  0  0  0  0
  1  2  1  0  0  0  0
  2  3  2  0  0  0  0
  3  4  1  0  0  0  0
  4  5  2  0  0  0  0
  5  6  1  0  0  0  0
  6  7  2  0  0  0  0
  7  8  1  0  0  0  0
  8  9  2  0  0  0  0
  8 10  2  0  0  0  0
  8 11  1  0  0  0  0
 11 12  1  0  0  0  0
 12 13  1  0  0  0  0
 13 14  1  0  0  0  0
 14 15  1  0  0  0  0
 15 16  1  0  0  0  0
 16 17  2  0  0  0  0
 17 18  1  0  0  0  0
 18 19  2  0  0  0  0
 19 20  1  0  0  0  0
 20 21  1  0  0  0  0
 14 22  1  0  0  0  0
 22 23  2  0  0  0  0
 23 24  1  0  0  0  0
 24 25  2  0  0  0  0
 25 26  1  0  0  0  0
 26 27  3  0  0  0  0
 25 28  1  0  0  0  0
 28 29  2  0  0  0  0
 11 30  1  0  0  0  0
 30 31  1  0  0  0  0
 31 32  1  0  0  0  0
 32 33  1  0  0  0  0
 33 34  1  0  0  0  0
 34 35  1  0  0  0  0
 35 36  2  0  0  0  0
 35 37  1  0  0  0  0
 37 38  1  0  0  0  0
 38 39  1  0  0  0  0
 38 40  1  0  0  0  0
 38 41  1  0  0  0  0
 34 42  1  0  0  0  0
 42 43  1  0  0  0  0
  7  2  1  0  0  0  0
 20 16  1  0  0  0  0
 29 22  1  0  0  0  0
 43 31  1  0  0  0  0
  1 44  1  0  0  0  0
  1 45  1  0  0  0  0
  1 46  1  0  0  0  0
  3 47  1  0  0  0  0
  4 48  1  0  0  0  0
  5 49  1  0  0  0  0
  6 50  1  0  0  0  0
 12 51  1  0  0  0  0
 12 52  1  0  0  0  0
 13 53  1  0  0  0  0
 13 54  1  0  0  0  0
 15 55  1  0  0  0  0
 15 56  1  0  0  0  0
 17 57  1  0  0  0  0
 19 58  1  0  0  0  0
 21 59  1  0  0  0  0
 21 60  1  0  0  0  0
 21 61  1  0  0  0  0
 23 62  1  0  0  0  0
 24 63  1  0  0  0  0
 28 64  1  0  0  0  0
 29 65  1  0  0  0  0
 30 66  1  0  0  0  0
 30 67  1  0  0  0  0
 31 68  1  0  0  0  0
 32 69  1  0  0  0  0
 32 70  1  0  0  0  0
 33 71  1  0  0  0  0
 33 72  1  0  0  0  0
 39 73  1  0  0  0  0
 39 74  1  0  0  0  0
 39 75  1  0  0  0  0
 40 76  1  0  0  0  0
 40 77  1  0  0  0  0
 40 78  1  0  0  0  0
 41 79  1  0  0  0  0
 41 80  1  0  0  0  0
 41 81  1  0  0  0  0
 42 82  1  0  0  0  0
 42 83  1  0  0  0  0
 43 84  1  0  0  0  0
 43 85  1  0  0  0  0
M  END
>  <docking-score>
-14.67

$$$$
3E37_ED5_2
foFlexX   03192112233D 1   1.00000     0.00000     0
FlexX 4.5.0 fol007
 85 88  0  0  0  0            999 V2000
   20.2253  134.4434   -0.1597 C   0  0  0  0  0  0  0  0  0  0  0  0
   21.1187  135.6531   -0.3812 C   0  0  0  0  0  0  0  0  0  0  0  0
   21.1724  136.6242    0.6136 C   0  0  0  0  0  0  0  0  0  0  0  0
   21.9822  137.7404    0.4347 C   0  0  0  0  0  0  0  0  0  0  0  0
   22.7289  137.8780   -0.7308 C   0  0  0  0  0  0  0  0  0  0  0  0
   22.6764  136.9081   -1.7267 C   0  0  0  0  0  0  0  0  0  0  0  0
   21.8657  135.7914   -1.5476 C   0  0  0  0  0  0  0  0  0  0  0  0
   21.8111  134.5603   -2.8329 S   0  0  0  0  0  0  0  0  0  0  0  0
   22.9089  134.7434   -3.8429 O   0  0  0  0  0  0  0  0  0  0  0  0
   22.0096  133.2273   -2.1688 O   0  0  0  0  0  0  0  0  0  0  0  0
   20.2501  134.5754   -3.6429 N   0  0  0  0  0  0  0  0  0  0  0  0
   19.2673  133.6693   -3.0102 C   0  0  0  0  0  0  0  0  0  0  0  0
   18.4688  132.8085   -4.0074 C   0  0  0  0  0  0  0  0  0  0  0  0
   17.2473  133.5122   -4.4147 N   0  0  0  0  0  0  0  0  0  0  0  0
   17.3051  134.8170   -5.0829 C   0  0  0  0  0  0  0  0  0  0  0  0
   16.9496  134.6732   -6.5337 C   0  0  0  0  0  0  0  0  0  0  0  0
   17.6058  133.8972   -7.4435 C   0  0  0  0  0  0  0  0  0  0  0  0
   16.9612  134.0508   -8.6350 N   0  0  0  0  0  0  0  0  0  0  0  0
   15.9560  134.8828   -8.4652 C   0  0  0  0  0  0  0  0  0  0  0  0
   15.9143  135.2857   -7.1667 N   0  0  0  0  0  0  0  0  0  0  0  0
   14.9442  136.2118   -6.5636 C   0  0  0  0  0  0  0  0  0  0  0  0
   16.0063  132.9977   -4.0198 C   0  0  0  0  0  0  0  0  0  0  0  0
   14.8519  133.7333   -4.2683 C   0  0  0  0  0  0  0  0  0  0  0  0
   13.6128  133.2344   -3.8809 C   0  0  0  0  0  0  0  0  0  0  0  0
   13.5471  131.9985   -3.2471 C   0  0  0  0  0  0  0  0  0  0  0  0
   12.2707  131.4708   -2.8426 C   0  0  0  0  0  0  0  0  0  0  0  0
   11.2445  131.0459   -2.5187 N   0  0  0  0  0  0  0  0  0  0  0  0
   14.6985  131.2590   -2.9968 C   0  0  0  0  0  0  0  0  0  0  0  0
   15.9361  131.7616   -3.3854 C   0  0  0  0  0  0  0  0  0  0  0  0
   19.7213  135.9436   -3.8353 C   0  0  0  0  0  0  0  0  0  0  0  0
   18.4985  136.2081   -2.9306 C   0  0  0  0  0  0  0  0  0  0  0  0
   18.9426  136.7772   -1.5926 C   0  0  0  0  0  0  0  0  0  0  0  0
   17.6733  136.9231   -0.7701 C   0  0  0  0  0  0  0  0  0  0  0  0
   16.8432  137.9492   -1.4191 N   0  0  0  0  0  0  0  0  0  0  0  0
   15.8569  138.5942   -0.6636 C   0  0  0  0  0  0  0  0  0  0  0  0
   15.5310  139.7817   -0.9358 O   0  0  0  0  0  0  0  0  0  0  0  0
   15.2371  137.9062    0.3926 O   0  0  0  0  0  0  0  0  0  0  0  0
   14.6147  138.4944    1.5444 C   0  0  0  0  0  0  0  0  0  0  0  0
   13.2163  138.9628    1.1138 C   0  0  0  0  0  0  0  0  0  0  0  0
   14.4659  137.4545    2.6713 C   0  0  0  0  0  0  0  0  0  0  0  0
   15.4194  139.7141    2.0325 C   0  0  0  0  0  0  0  0  0  0  0  0
   17.0424  138.3010   -2.8368 C   0  0  0  0  0  0  0  0  0  0  0  0
   17.5577  137.1406   -3.6811 C   0  0  0  0  0  0  0  0  0  0  0  0
   20.2859  133.8349   -0.9509 H   0  0  0  0  0  0  0  0  0  0  0  0
   20.5232  133.9547    0.6603 H   0  0  0  0  0  0  0  0  0  0  0  0
   19.2790  134.7449   -0.0428 H   0  0  0  0  0  0  0  0  0  0  0  0
   20.6335  136.5204    1.4496 H   0  0  0  0  0  0  0  0  0  0  0  0
   22.0277  138.4441    1.1438 H   0  0  0  0  0  0  0  0  0  0  0  0
   23.3097  138.6827   -0.8542 H   0  0  0  0  0  0  0  0  0  0  0  0
   23.2155  137.0123   -2.5624 H   0  0  0  0  0  0  0  0  0  0  0  0
   18.6206  134.2243   -2.4870 H   0  0  0  0  0  0  0  0  0  0  0  0
   19.7586  133.0572   -2.3906 H   0  0  0  0  0  0  0  0  0  0  0  0
   18.2223  131.9421   -3.5731 H   0  0  0  0  0  0  0  0  0  0  0  0
   19.0317  132.6288   -4.8141 H   0  0  0  0  0  0  0  0  0  0  0  0
   18.2308  135.1871   -5.0049 H   0  0  0  0  0  0  0  0  0  0  0  0
   16.6585  135.4413   -4.6447 H   0  0  0  0  0  0  0  0  0  0  0  0
   18.4071  133.3247   -7.2696 H   0  0  0  0  0  0  0  0  0  0  0  0
   15.3208  135.1741   -9.1805 H   0  0  0  0  0  0  0  0  0  0  0  0
   15.1572  136.3328   -5.5941 H   0  0  0  0  0  0  0  0  0  0  0  0
   14.9936  137.0957   -7.0286 H   0  0  0  0  0  0  0  0  0  0  0  0
   14.0220  135.8365   -6.6580 H   0  0  0  0  0  0  0  0  0  0  0  0
   14.9130  134.6205   -4.7255 H   0  0  0  0  0  0  0  0  0  0  0  0
   12.7792  133.7583   -4.0560 H   0  0  0  0  0  0  0  0  0  0  0  0
   14.6370  130.3715   -2.5402 H   0  0  0  0  0  0  0  0  0  0  0  0
   16.7697  131.2378   -3.2100 H   0  0  0  0  0  0  0  0  0  0  0  0
   19.4491  136.0557   -4.7910 H   0  0  0  0  0  0  0  0  0  0  0  0
   20.4389  136.6038   -3.6135 H   0  0  0  0  0  0  0  0  0  0  0  0
   18.0273  135.3411   -2.7686 H   0  0  0  0  0  0  0  0  0  0  0  0
   19.3807  137.6671   -1.7197 H   0  0  0  0  0  0  0  0  0  0  0  0
   19.5808  136.1529   -1.1421 H   0  0  0  0  0  0  0  0  0  0  0  0
   17.1817  136.0528   -0.7431 H   0  0  0  0  0  0  0  0  0  0  0  0
   17.9006  137.2066    0.1616 H   0  0  0  0  0  0  0  0  0  0  0  0
   12.6873  138.1786    0.7895 H   0  0  0  0  0  0  0  0  0  0  0  0
   12.7497  139.3801    1.8936 H   0  0  0  0  0  0  0  0  0  0  0  0
   13.3017  139.6345    0.3780 H   0  0  0  0  0  0  0  0  0  0  0  0
   15.3691  137.1124    2.9306 H   0  0  0  0  0  0  0  0  0  0  0  0
   14.0312  137.8819    3.4640 H   0  0  0  0  0  0  0  0  0  0  0  0
   13.9008  136.6942    2.3509 H   0  0  0  0  0  0  0  0  0  0  0  0
   15.4635  140.3976    1.3038 H   0  0  0  0  0  0  0  0  0  0  0  0
   14.9713  140.1099    2.8341 H   0  0  0  0  0  0  0  0  0  0  0  0
   16.3456  139.4266    2.2763 H   0  0  0  0  0  0  0  0  0  0  0  0
   17.7042  139.0489   -2.8880 H   0  0  0  0  0  0  0  0  0  0  0  0
   16.1673  138.6038   -3.2143 H   0  0  0  0  0  0  0  0  0  0  0  0
   16.7729  136.6085   -3.9989 H   0  0  0  0  0  0  0  0  0  0  0  0
   18.0468  137.5159   -4.4685 H   0  0  0  0  0  0  0  0  0  0  0  0
  1  2  1  0  0  0  0
  2  3  2  0  0  0  0
  3  4  1  0  0  0  0
  4  5  2  0  0  0  0
  5  6  1  0  0  0  0
  6  7  2  0  0  0  0
  7  8  1  0  0  0  0
  8  9  2  0  0  0  0
  8 10  2  0  0  0  0
  8 11  1  0  0  0  0
 11 12  1  0  0  0  0
 12 13  1  0  0  0  0
 13 14  1  0  0  0  0
 14 15  1  0  0  0  0
 15 16  1  0  0  0  0
 16 17  2  0  0  0  0
 17 18  1  0  0  0  0
 18 19  2  0  0  0  0
 19 20  1  0  0  0  0
 20 21  1  0  0  0  0
 14 22  1  0  0  0  0
 22 23  2  0  0  0  0
 23 24  1  0  0  0  0
 24 25  2  0  0  0  0
 25 26  1  0  0  0  0
 26 27  3  0  0  0  0
 25 28  1  0  0  0  0
 28 29  2  0  0  0  0
 11 30  1  0  0  0  0
 30 31  1  0  0  0  0
 31 32  1  0  0  0  0
 32 33  1  0  0  0  0
 33 34  1  0  0  0  0
 34 35  1  0  0  0  0
 35 36  2  0  0  0  0
 35 37  1  0  0  0  0
 37 38  1  0  0  0  0
 38 39  1  0  0  0  0
 38 40  1  0  0  0  0
 38 41  1  0  0  0  0
 34 42  1  0  0  0  0
 42 43  1  0  0  0  0
  7  2  1  0  0  0  0
 20 16  1  0  0  0  0
 29 22  1  0  0  0  0
 43 31  1  0  0  0  0
  1 44  1  0  0  0  0
  1 45  1  0  0  0  0
  1 46  1  0  0  0  0
  3 47  1  0  0  0  0
  4 48  1  0  0  0  0
  5 49  1  0  0  0  0
  6 50  1  0  0  0  0
 12 51  1  0  0  0  0
 12 52  1  0  0  0  0
 13 53  1  0  0  0  0
 13 54  1  0  0  0  0
 15 55  1  0  0  0  0
 15 56  1  0  0  0  0
 17 57  1  0  0  0  0
 19 58  1  0  0  0  0
 21 59  1  0  0  0  0
 21 60  1  0  0  0  0
 21 61  1  0  0  0  0
 23 62  1  0  0  0  0
 24 63  1  0  0  0  0
 28 64  1  0  0  0  0
 29 65  1  0  0  0  0
 30 66  1  0  0  0  0
 30 67  1  0  0  0  0
 31 68  1  0  0  0  0
 32 69  1  0  0  0  0
 32 70  1  0  0  0  0
 33 71  1  0  0  0  0
 33 72  1  0  0  0  0
 39 73  1  0  0  0  0
 39 74  1  0  0  0  0
 39 75  1  0  0  0  0
 40 76  1  0  0  0  0
 40 77  1  0  0  0  0
 40 78  1  0  0  0  0
 41 79  1  0  0  0  0
 41 80  1  0  0  0  0
 41 81  1  0  0  0  0
 42 82  1  0  0  0  0
 42 83  1  0  0  0  0
 43 84  1  0  0  0  0
 43 85  1  0  0  0  0
M  END
>  <docking-score>
-13.64

$$$$
3E37_ED5_3
foFlexX   03192112233D 1   1.00000     0.00000     0
FlexX 4.5.0 fol007
 85 88  0  0  0  0            999 V2000
   20.2085  134.4617   -0.1992 C   0  0  0  0  0  0  0  0  0  0  0  0
   21.0980  135.6744   -0.4197 C   0  0  0  0  0  0  0  0  0  0  0  0
   21.1498  136.6441    0.5765 C   0  0  0  0  0  0  0  0  0  0  0  0
   21.9561  137.7631    0.3985 C   0  0  0  0  0  0  0  0  0  0  0  0
   22.7011  137.9047   -0.7676 C   0  0  0  0  0  0  0  0  0  0  0  0
   22.6504  136.9363   -1.7649 C   0  0  0  0  0  0  0  0  0  0  0  0
   21.8433  135.8169   -1.5867 C   0  0  0  0  0  0  0  0  0  0  0  0
   21.7911  134.5876   -2.8739 S   0  0  0  0  0  0  0  0  0  0  0  0
   22.8872  134.7756   -3.8848 O   0  0  0  0  0  0  0  0  0  0  0  0
   21.9943  133.2542   -2.2121 O   0  0  0  0  0  0  0  0  0  0  0  0
   20.2292  134.5993   -3.6823 N   0  0  0  0  0  0  0  0  0  0  0  0
   19.2498  133.6893   -3.0499 C   0  0  0  0  0  0  0  0  0  0  0  0
   18.4528  132.8276   -4.0476 C   0  0  0  0  0  0  0  0  0  0  0  0
   17.2287  133.5282   -4.4525 N   0  0  0  0  0  0  0  0  0  0  0  0
   17.2819  134.8342   -5.1187 C   0  0  0  0  0  0  0  0  0  0  0  0
   16.9252  134.6917   -6.5694 C   0  0  0  0  0  0  0  0  0  0  0  0
   17.5828  133.9191   -7.4810 C   0  0  0  0  0  0  0  0  0  0  0  0
   16.9365  134.0726   -8.6716 N   0  0  0  0  0  0  0  0  0  0  0  0
   15.9290  134.9013   -8.4995 C   0  0  0  0  0  0  0  0  0  0  0  0
   15.8874  135.3020   -7.2003 N   0  0  0  0  0  0  0  0  0  0  0  0
   14.9152  136.2242   -6.5947 C   0  0  0  0  0  0  0  0  0  0  0  0
   15.9898  133.0094   -4.0570 C   0  0  0  0  0  0  0  0  0  0  0  0
   14.8329  133.7418   -4.3032 C   0  0  0  0  0  0  0  0  0  0  0  0
   13.5957  133.2386   -3.9152 C   0  0  0  0  0  0  0  0  0  0  0  0
   13.5344  132.0015   -3.2834 C   0  0  0  0  0  0  0  0  0  0  0  0
   12.2601  131.4693   -2.8783 C   0  0  0  0  0  0  0  0  0  0  0  0
   11.2355  131.0408   -2.5540 N   0  0  0  0  0  0  0  0  0  0  0  0
   14.6883  131.2651   -3.0354 C   0  0  0  0  0  0  0  0  0  0  0  0
   15.9240  131.7720   -3.4246 C   0  0  0  0  0  0  0  0  0  0  0  0
   19.6960  135.9662   -3.8719 C   0  0  0  0  0  0  0  0  0  0  0  0
   18.4734  136.2256   -2.9654 C   0  0  0  0  0  0  0  0  0  0  0  0
   17.5545  137.2234   -3.6601 C   0  0  0  0  0  0  0  0  0  0  0  0
   17.1920  138.4113   -2.7796 C   0  0  0  0  0  0  0  0  0  0  0  0
   16.9273  138.0119   -1.3876 N   0  0  0  0  0  0  0  0  0  0  0  0
   15.9990  138.6918   -0.5895 C   0  0  0  0  0  0  0  0  0  0  0  0
   15.7874  139.9207   -0.7773 O   0  0  0  0  0  0  0  0  0  0  0  0
   15.3091  137.9920    0.4142 O   0  0  0  0  0  0  0  0  0  0  0  0
   14.7349  138.5532    1.6039 C   0  0  0  0  0  0  0  0  0  0  0  0
   13.3898  139.1795    1.2055 C   0  0  0  0  0  0  0  0  0  0  0  0
   14.4806  137.4550    2.6540 C   0  0  0  0  0  0  0  0  0  0  0  0
   15.6458  139.6548    2.1785 C   0  0  0  0  0  0  0  0  0  0  0  0
   17.6353  136.8713   -0.7895 C   0  0  0  0  0  0  0  0  0  0  0  0
   18.9164  136.6715   -1.5792 C   0  0  0  0  0  0  0  0  0  0  0  0
   20.2701  133.8546   -0.9914 H   0  0  0  0  0  0  0  0  0  0  0  0
   20.5087  133.9726    0.6197 H   0  0  0  0  0  0  0  0  0  0  0  0
   19.2614  134.7602   -0.0808 H   0  0  0  0  0  0  0  0  0  0  0  0
   20.6122  136.5374    1.4129 H   0  0  0  0  0  0  0  0  0  0  0  0
   22.0002  138.4658    1.1087 H   0  0  0  0  0  0  0  0  0  0  0  0
   23.2793  138.7114   -0.8903 H   0  0  0  0  0  0  0  0  0  0  0  0
   23.1883  137.0434   -2.6011 H   0  0  0  0  0  0  0  0  0  0  0  0
   18.6019  134.2415   -2.5251 H   0  0  0  0  0  0  0  0  0  0  0  0
   19.7436  133.0776   -2.4318 H   0  0  0  0  0  0  0  0  0  0  0  0
   18.2094  131.9597   -3.6145 H   0  0  0  0  0  0  0  0  0  0  0  0
   19.0154  132.6509   -4.8552 H   0  0  0  0  0  0  0  0  0  0  0  0
   18.2066  135.2070   -5.0411 H   0  0  0  0  0  0  0  0  0  0  0  0
   16.6338  135.4559   -4.6788 H   0  0  0  0  0  0  0  0  0  0  0  0
   18.3860  133.3487   -7.3089 H   0  0  0  0  0  0  0  0  0  0  0  0
   15.2921  135.1918   -9.2136 H   0  0  0  0  0  0  0  0  0  0  0  0
   15.1288  136.3444   -5.6252 H   0  0  0  0  0  0  0  0  0  0  0  0
   14.9614  137.1090   -7.0584 H   0  0  0  0  0  0  0  0  0  0  0  0
   13.9941  135.8463   -6.6887 H   0  0  0  0  0  0  0  0  0  0  0  0
   14.8908  134.6300   -4.7591 H   0  0  0  0  0  0  0  0  0  0  0  0
   12.7603  133.7602   -4.0886 H   0  0  0  0  0  0  0  0  0  0  0  0
   14.6299  130.3766   -2.5802 H   0  0  0  0  0  0  0  0  0  0  0  0
   16.7593  131.2505   -3.2508 H   0  0  0  0  0  0  0  0  0  0  0  0
   19.4225  136.0790   -4.8271 H   0  0  0  0  0  0  0  0  0  0  0  0
   20.4119  136.6282   -3.6498 H   0  0  0  0  0  0  0  0  0  0  0  0
   17.9747  135.3644   -2.8672 H   0  0  0  0  0  0  0  0  0  0  0  0
   16.7123  136.7521   -3.9220 H   0  0  0  0  0  0  0  0  0  0  0  0
   18.0150  137.5633   -4.4801 H   0  0  0  0  0  0  0  0  0  0  0  0
   17.9508  139.0625   -2.7890 H   0  0  0  0  0  0  0  0  0  0  0  0
   16.3727  138.8487   -3.1504 H   0  0  0  0  0  0  0  0  0  0  0  0
   12.7927  138.4731    0.8255 H   0  0  0  0  0  0  0  0  0  0  0  0
   12.9578  139.5827    2.0122 H   0  0  0  0  0  0  0  0  0  0  0  0
   13.5435  139.8905    0.5193 H   0  0  0  0  0  0  0  0  0  0  0  0
   15.3458  137.0124    2.8897 H   0  0  0  0  0  0  0  0  0  0  0  0
   14.0812  137.8642    3.4743 H   0  0  0  0  0  0  0  0  0  0  0  0
   13.8498  136.7754    2.2795 H   0  0  0  0  0  0  0  0  0  0  0  0
   15.7593  140.3808    1.5003 H   0  0  0  0  0  0  0  0  0  0  0  0
   15.2300  140.0333    3.0055 H   0  0  0  0  0  0  0  0  0  0  0  0
   16.5391  139.2654    2.4028 H   0  0  0  0  0  0  0  0  0  0  0  0
   17.0680  136.0496   -0.8438 H   0  0  0  0  0  0  0  0  0  0  0  0
   17.8500  137.0655    0.1677 H   0  0  0  0  0  0  0  0  0  0  0  0
   19.4299  137.5278   -1.6349 H   0  0  0  0  0  0  0  0  0  0  0  0
   19.4851  135.9690   -1.1511 H   0  0  0  0  0  0  0  0  0  0  0  0
  1  2  1  0  0  0  0
  2  3  2  0  0  0  0
  3  4  1  0  0  0  0
  4  5  2  0  0  0  0
  5  6  1  0  0  0  0
  6  7  2  0  0  0  0
  7  8  1  0  0  0  0
  8  9  2  0  0  0  0
  8 10  2  0  0  0  0
  8 11  1  0  0  0  0
 11 12  1  0  0  0  0
 12 13  1  0  0  0  0
 13 14  1  0  0  0  0
 14 15  1  0  0  0  0
 15 16  1  0  0  0  0
 16 17  2  0  0  0  0
 17 18  1  0  0  0  0
 18 19  2  0  0  0  0
 19 20  1  0  0  0  0
 20 21  1  0  0  0  0
 14 22  1  0  0  0  0
 22 23  2  0  0  0  0
 23 24  1  0  0  0  0
 24 25  2  0  0  0  0
 25 26  1  0  0  0  0
 26 27  3  0  0  0  0
 25 28  1  0  0  0  0
 28 29  2  0  0  0  0
 11 30  1  0  0  0  0
 30 31  1  0  0  0  0
 31 32  1  0  0  0  0
 32 33  1  0  0  0  0
 33 34  1  0  0  0  0
 34 35  1  0  0  0  0
 35 36  2  0  0  0  0
 35 37  1  0  0  0  0
 37 38  1  0  0  0  0
 38 39  1  0  0  0  0
 38 40  1  0  0  0  0
 38 41  1  0  0  0  0
 34 42  1  0  0  0  0
 42 43  1  0  0  0  0
  7  2  1  0  0  0  0
 20 16  1  0  0  0  0
 29 22  1  0  0  0  0
 43 31  1  0  0  0  0
  1 44  1  0  0  0  0
  1 45  1  0  0  0  0
  1 46  1  0  0  0  0
  3 47  1  0  0  0  0
  4 48  1  0  0  0  0
  5 49  1  0  0  0  0
  6 50  1  0  0  0  0
 12 51  1  0  0  0  0
 12 52  1  0  0  0  0
 13 53  1  0  0  0  0
 13 54  1  0  0  0  0
 15 55  1  0  0  0  0
 15 56  1  0  0  0  0
 17 57  1  0  0  0  0
 19 58  1  0  0  0  0
 21 59  1  0  0  0  0
 21 60  1  0  0  0  0
 21 61  1  0  0  0  0
 23 62  1  0  0  0  0
 24 63  1  0  0  0  0
 28 64  1  0  0  0  0
 29 65  1  0  0  0  0
 30 66  1  0  0  0  0
 30 67  1  0  0  0  0
 31 68  1  0  0  0  0
 32 69  1  0  0  0  0
 32 70  1  0  0  0  0
 33 71  1  0  0  0  0
 33 72  1  0  0  0  0
 39 73  1  0  0  0  0
 39 74  1  0  0  0  0
 39 75  1  0  0  0  0
 40 76  1  0  0  0  0
 40 77  1  0  0  0  0
 40 78  1  0  0  0  0
 41 79  1  0  0  0  0
 41 80  1  0  0  0  0
 41 81  1  0  0  0  0
 42 82  1  0  0  0  0
 42 83  1  0  0  0  0
 43 84  1  0  0  0  0
 43 85  1  0  0  0  0
M  END
>  <docking-score>
-13.49

$$$$
2IEJ_S48_1
foFlexX   03192112233D 1   1.00000     0.00000     0
FlexX 4.5.0 fol007
 68 72  0  0  0  0            999 V2000
   20.6177  139.6189   -6.2489 C   0  0  0  0  0  0  0  0  0  0  0  0
   20.3013  138.4841   -5.4520 O   0  0  0  0  0  0  0  0  0  0  0  0
   20.3676  137.1773   -5.9420 C   0  0  0  0  0  0  0  0  0  0  0  0
   20.7178  136.9566   -7.1327 O   0  0  0  0  0  0  0  0  0  0  0  0
   20.0170  136.0363   -5.0413 C   0  0  0  0  0  0  0  0  0  0  0  0
   20.3374  136.3755   -3.6300 N   0  0  0  0  0  0  0  0  0  0  0  0
   19.1404  136.2730   -2.7775 C   0  0  1  0  0  0  0  0  0  0  0  0
   18.4110  137.6085   -2.8200 C   0  0  0  0  0  0  0  0  0  0  0  0
   17.1213  137.4079   -2.0384 C   0  0  0  0  0  0  0  0  0  0  0  0
   16.6764  138.3706   -1.1445 C   0  0  0  0  0  0  0  0  0  0  0  0
   15.5200  138.1586   -0.4005 C   0  0  0  0  0  0  0  0  0  0  0  0
   15.1022  139.1681    0.5517 C   0  0  0  0  0  0  0  0  0  0  0  0
   15.8622  140.3230    0.7017 C   0  0  0  0  0  0  0  0  0  0  0  0
   15.4560  141.2877    1.6175 C   0  0  0  0  0  0  0  0  0  0  0  0
   14.3044  141.1002    2.3737 C   0  0  0  0  0  0  0  0  0  0  0  0
   13.5504  139.9415    2.2171 C   0  0  0  0  0  0  0  0  0  0  0  0
   13.9486  138.9710    1.3038 C   0  0  0  0  0  0  0  0  0  0  0  0
   14.7860  136.9885   -0.5653 C   0  0  0  0  0  0  0  0  0  0  0  0
   15.2363  136.0457   -1.4837 C   0  0  0  0  0  0  0  0  0  0  0  0
   16.3975  136.2379   -2.2295 C   0  0  0  0  0  0  0  0  0  0  0  0
   16.8660  135.2947   -3.1601 N   0  0  0  0  0  0  0  0  0  0  0  0
   15.9574  134.5053   -4.0056 C   0  0  0  0  0  0  0  0  0  0  0  0
   15.3617  133.3293   -3.2700 C   0  0  0  0  0  0  0  0  0  0  0  0
   14.1420  132.7697   -3.5139 C   0  0  0  0  0  0  0  0  0  0  0  0
   13.9952  131.7383   -2.6344 N   0  0  0  0  0  0  0  0  0  0  0  0
   15.0743  131.6680   -1.8847 C   0  0  0  0  0  0  0  0  0  0  0  0
   15.9501  132.6399   -2.2570 N   0  0  0  0  0  0  0  0  0  0  0  0
   17.2737  132.9024   -1.6725 C   0  0  0  0  0  0  0  0  0  0  0  0
   18.3191  135.0862   -3.2690 C   0  0  0  0  0  0  0  0  0  0  0  0
   21.7089  135.4142   -3.0930 S   0  0  0  0  0  0  0  0  0  0  0  0
   22.6001  135.0719   -4.2536 O   0  0  0  0  0  0  0  0  0  0  0  0
   22.5034  136.1762   -2.0684 O   0  0  0  0  0  0  0  0  0  0  0  0
   21.1790  133.8919   -2.3975 C   0  0  0  0  0  0  0  0  0  0  0  0
   21.2494  133.5648   -1.0780 C   0  0  0  0  0  0  0  0  0  0  0  0
   20.7370  132.3094   -0.9857 N   0  0  0  0  0  0  0  0  0  0  0  0
   20.5997  131.5240    0.2491 C   0  0  0  0  0  0  0  0  0  0  0  0
   20.3695  131.9025   -2.2314 C   0  0  0  0  0  0  0  0  0  0  0  0
   20.6330  132.8554   -3.0948 N   0  0  0  0  0  0  0  0  0  0  0  0
   20.0062  139.6520   -7.0395 H   0  0  0  0  0  0  0  0  0  0  0  0
   20.5044  140.4503   -5.7049 H   0  0  0  0  0  0  0  0  0  0  0  0
   21.5648  139.5523   -6.5626 H   0  0  0  0  0  0  0  0  0  0  0  0
   20.5401  135.2286   -5.3134 H   0  0  0  0  0  0  0  0  0  0  0  0
   19.0392  135.8423   -5.1201 H   0  0  0  0  0  0  0  0  0  0  0  0
   19.4303  136.0953   -1.8370 H   0  0  0  0  0  0  0  0  0  0  0  0
   18.9677  138.3220   -2.3945 H   0  0  0  0  0  0  0  0  0  0  0  0
   18.2081  137.8635   -3.7654 H   0  0  0  0  0  0  0  0  0  0  0  0
   17.1896  139.2218   -1.0342 H   0  0  0  0  0  0  0  0  0  0  0  0
   16.6905  140.4582    0.1578 H   0  0  0  0  0  0  0  0  0  0  0  0
   15.9957  142.1216    1.7330 H   0  0  0  0  0  0  0  0  0  0  0  0
   14.0181  141.7983    3.0300 H   0  0  0  0  0  0  0  0  0  0  0  0
   12.7223  139.8064    2.7612 H   0  0  0  0  0  0  0  0  0  0  0  0
   13.4090  138.1370    1.1884 H   0  0  0  0  0  0  0  0  0  0  0  0
   13.9531  136.8287   -0.0354 H   0  0  0  0  0  0  0  0  0  0  0  0
   14.7108  135.2047   -1.6125 H   0  0  0  0  0  0  0  0  0  0  0  0
   16.4681  134.1649   -4.7951 H   0  0  0  0  0  0  0  0  0  0  0  0
   15.2150  135.0974   -4.3191 H   0  0  0  0  0  0  0  0  0  0  0  0
   13.4814  133.0605   -4.2060 H   0  0  0  0  0  0  0  0  0  0  0  0
   15.2270  131.0027   -1.1539 H   0  0  0  0  0  0  0  0  0  0  0  0
   17.6945  133.6817   -2.1368 H   0  0  0  0  0  0  0  0  0  0  0  0
   17.1733  133.1087   -0.6992 H   0  0  0  0  0  0  0  0  0  0  0  0
   17.8534  132.0952   -1.7841 H   0  0  0  0  0  0  0  0  0  0  0  0
   18.5444  134.9208   -4.2291 H   0  0  0  0  0  0  0  0  0  0  0  0
   18.5655  134.2836   -2.7257 H   0  0  0  0  0  0  0  0  0  0  0  0
   21.6038  134.1298   -0.3329 H   0  0  0  0  0  0  0  0  0  0  0  0
   20.1916  130.6363    0.0358 H   0  0  0  0  0  0  0  0  0  0  0  0
   21.5015  131.3865    0.6587 H   0  0  0  0  0  0  0  0  0  0  0  0
   20.0125  132.0148    0.8928 H   0  0  0  0  0  0  0  0  0  0  0  0
   19.9626  131.0166   -2.4540 H   0  0  0  0  0  0  0  0  0  0  0  0
  1  2  1  0  0  0  0
  2  3  1  0  0  0  0
  3  4  2  0  0  0  0
  3  5  1  0  0  0  0
  5  6  1  0  0  0  0
  6  7  1  0  0  0  0
  7  8  1  0  0  0  0
  8  9  1  0  0  0  0
  9 10  2  0  0  0  0
 10 11  1  0  0  0  0
 11 12  1  0  0  0  0
 12 13  2  0  0  0  0
 13 14  1  0  0  0  0
 14 15  2  0  0  0  0
 15 16  1  0  0  0  0
 16 17  2  0  0  0  0
 11 18  2  0  0  0  0
 18 19  1  0  0  0  0
 19 20  2  0  0  0  0
 20 21  1  0  0  0  0
 21 22  1  0  0  0  0
 22 23  1  0  0  0  0
 23 24  2  0  0  0  0
 24 25  1  0  0  0  0
 25 26  2  0  0  0  0
 26 27  1  0  0  0  0
 27 28  1  0  0  0  0
 21 29  1  0  0  0  0
  6 30  1  0  0  0  0
 30 31  2  0  0  0  0
 30 32  2  0  0  0  0
 30 33  1  0  0  0  0
 33 34  2  0  0  0  0
 34 35  1  0  0  0  0
 35 36  1  0  0  0  0
 35 37  1  0  0  0  0
 37 38  2  0  0  0  0
 29  7  1  0  0  0  0
 38 33  1  0  0  0  0
 20  9  1  0  0  0  0
 27 23  1  0  0  0  0
 17 12  1  0  0  0  0
  1 39  1  0  0  0  0
  1 40  1  0  0  0  0
  1 41  1  0  0  0  0
  5 42  1  0  0  0  0
  5 43  1  0  0  0  0
  7 44  1  0  0  0  0
  8 45  1  0  0  0  0
  8 46  1  0  0  0  0
 10 47  1  0  0  0  0
 13 48  1  0  0  0  0
 14 49  1  0  0  0  0
 15 50  1  0  0  0  0
 16 51  1  0  0  0  0
 17 52  1  0  0  0  0
 18 53  1  0  0  0  0
 19 54  1  0  0  0  0
 22 55  1  0  0  0  0
 22 56  1  0  0  0  0
 24 57  1  0  0  0  0
 26 58  1  0  0  0  0
 28 59  1  0  0  0  0
 28 60  1  0  0  0  0
 28 61  1  0  0  0  0
 29 62  1  0  0  0  0
 29 63  1  0  0  0  0
 34 64  1  0  0  0  0
 36 65  1  0  0  0  0
 36 66  1  0  0  0  0
 36 67  1  0  0  0  0
 37 68  1  0  0  0  0
M  END
>  <docking-score>
-19.40

$$$$
2IEJ_S48_2
foFlexX   03192112233D 1   1.00000     0.00000     0
FlexX 4.5.0 fol007
 68 72  0  0  0  0            999 V2000
   19.3699  139.4550   -5.9282 C   0  0  0  0  0  0  0  0  0  0  0  0
   19.5583  138.2477   -5.2001 O   0  0  0  0  0  0  0  0  0  0  0  0
   20.0586  137.0834   -5.7885 C   0  0  0  0  0  0  0  0  0  0  0  0
   20.3661  137.0645   -7.0110 O   0  0  0  0  0  0  0  0  0  0  0  0
   20.2260  135.8529   -4.9557 C   0  0  0  0  0  0  0  0  0  0  0  0
   20.5146  136.2201   -3.5445 N   0  0  0  0  0  0  0  0  0  0  0  0
   19.2889  136.1840   -2.7282 C   0  0  1  0  0  0  0  0  0  0  0  0
   18.6101  137.5428   -2.8301 C   0  0  0  0  0  0  0  0  0  0  0  0
   17.2904  137.4101   -2.0849 C   0  0  0  0  0  0  0  0  0  0  0  0
   16.8532  138.4127   -1.2321 C   0  0  0  0  0  0  0  0  0  0  0  0
   15.6673  138.2628   -0.5199 C   0  0  0  0  0  0  0  0  0  0  0  0
   15.2572  139.3128    0.3907 C   0  0  0  0  0  0  0  0  0  0  0  0
   15.6173  140.6292    0.1235 C   0  0  0  0  0  0  0  0  0  0  0  0
   15.2209  141.6321    1.0018 C   0  0  0  0  0  0  0  0  0  0  0  0
   14.4736  141.3230    2.1328 C   0  0  0  0  0  0  0  0  0  0  0  0
   14.1181  140.0031    2.3922 C   0  0  0  0  0  0  0  0  0  0  0  0
   14.5099  138.9932    1.5198 C   0  0  0  0  0  0  0  0  0  0  0  0
   14.8968  137.1152   -0.6764 C   0  0  0  0  0  0  0  0  0  0  0  0
   15.3409  136.1316   -1.5542 C   0  0  0  0  0  0  0  0  0  0  0  0
   16.5309  136.2615   -2.2674 C   0  0  0  0  0  0  0  0  0  0  0  0
   16.9935  135.2765   -3.1568 N   0  0  0  0  0  0  0  0  0  0  0  0
   16.0835  134.4963   -4.0092 C   0  0  0  0  0  0  0  0  0  0  0  0
   15.8016  133.1240   -3.4466 C   0  0  0  0  0  0  0  0  0  0  0  0
   16.7319  132.1602   -3.1892 C   0  0  0  0  0  0  0  0  0  0  0  0
   16.0606  131.0836   -2.6900 N   0  0  0  0  0  0  0  0  0  0  0  0
   14.7777  131.3725   -2.6434 C   0  0  0  0  0  0  0  0  0  0  0  0
   14.5802  132.6381   -3.1009 N   0  0  0  0  0  0  0  0  0  0  0  0
   13.2945  133.3433   -3.2106 C   0  0  0  0  0  0  0  0  0  0  0  0
   18.4407  135.0137   -3.2134 C   0  0  0  0  0  0  0  0  0  0  0  0
   21.8332  135.2263   -2.9382 S   0  0  0  0  0  0  0  0  0  0  0  0
   22.7468  134.8202   -4.0601 O   0  0  0  0  0  0  0  0  0  0  0  0
   22.6226  135.9883   -1.9097 O   0  0  0  0  0  0  0  0  0  0  0  0
   21.2271  133.7440   -2.2191 C   0  0  0  0  0  0  0  0  0  0  0  0
   21.2447  133.4519   -0.8897 C   0  0  0  0  0  0  0  0  0  0  0  0
   20.6845  132.2184   -0.7798 N   0  0  0  0  0  0  0  0  0  0  0  0
   20.4806  131.4735    0.4707 C   0  0  0  0  0  0  0  0  0  0  0  0
   20.3413  131.7900   -2.0252 C   0  0  0  0  0  0  0  0  0  0  0  0
   20.6657  132.7082   -2.9052 N   0  0  0  0  0  0  0  0  0  0  0  0
   18.7262  139.2959   -6.6767 H   0  0  0  0  0  0  0  0  0  0  0  0
   19.0049  140.1585   -5.3185 H   0  0  0  0  0  0  0  0  0  0  0  0
   20.2463  139.7594   -6.3014 H   0  0  0  0  0  0  0  0  0  0  0  0
   20.9845  135.3107   -5.3171 H   0  0  0  0  0  0  0  0  0  0  0  0
   19.3845  135.3138   -4.9907 H   0  0  0  0  0  0  0  0  0  0  0  0
   19.5429  136.0228   -1.7745 H   0  0  0  0  0  0  0  0  0  0  0  0
   19.1788  138.2479   -2.4064 H   0  0  0  0  0  0  0  0  0  0  0  0
   18.4459  137.7781   -3.7881 H   0  0  0  0  0  0  0  0  0  0  0  0
   17.3932  139.2480   -1.1285 H   0  0  0  0  0  0  0  0  0  0  0  0
   16.1546  140.8519   -0.6899 H   0  0  0  0  0  0  0  0  0  0  0  0
   15.4750  142.5818    0.8187 H   0  0  0  0  0  0  0  0  0  0  0  0
   14.1916  142.0493    2.7597 H   0  0  0  0  0  0  0  0  0  0  0  0
   13.5810  139.7806    3.2059 H   0  0  0  0  0  0  0  0  0  0  0  0
   14.2561  138.0434    1.7030 H   0  0  0  0  0  0  0  0  0  0  0  0
   14.0427  136.9999   -0.1693 H   0  0  0  0  0  0  0  0  0  0  0  0
   14.7895  135.3064   -1.6769 H   0  0  0  0  0  0  0  0  0  0  0  0
   16.4992  134.3935   -4.9129 H   0  0  0  0  0  0  0  0  0  0  0  0
   15.2192  134.9920   -4.0943 H   0  0  0  0  0  0  0  0  0  0  0  0
   17.7182  132.2300   -3.3382 H   0  0  0  0  0  0  0  0  0  0  0  0
   14.0588  130.7565   -2.3212 H   0  0  0  0  0  0  0  0  0  0  0  0
   13.4468  134.2576   -3.5860 H   0  0  0  0  0  0  0  0  0  0  0  0
   12.6843  132.8319   -3.8158 H   0  0  0  0  0  0  0  0  0  0  0  0
   12.8780  133.4200   -2.3047 H   0  0  0  0  0  0  0  0  0  0  0  0
   18.6895  134.8135   -4.1611 H   0  0  0  0  0  0  0  0  0  0  0  0
   18.6410  134.2185   -2.6411 H   0  0  0  0  0  0  0  0  0  0  0  0
   21.5961  134.0247   -0.1491 H   0  0  0  0  0  0  0  0  0  0  0  0
   20.0474  130.5951    0.2686 H   0  0  0  0  0  0  0  0  0  0  0  0
   21.3638  131.3158    0.9125 H   0  0  0  0  0  0  0  0  0  0  0  0
   19.8920  132.0027    1.0818 H   0  0  0  0  0  0  0  0  0  0  0  0
   19.9096  130.9131   -2.2367 H   0  0  0  0  0  0  0  0  0  0  0  0
  1  2  1  0  0  0  0
  2  3  1  0  0  0  0
  3  4  2  0  0  0  0
  3  5  1  0  0  0  0
  5  6  1  0  0  0  0
  6  7  1  0  0  0  0
  7  8  1  0  0  0  0
  8  9  1  0  0  0  0
  9 10  2  0  0  0  0
 10 11  1  0  0  0  0
 11 12  1  0  0  0  0
 12 13  2  0  0  0  0
 13 14  1  0  0  0  0
 14 15  2  0  0  0  0
 15 16  1  0  0  0  0
 16 17  2  0  0  0  0
 11 18  2  0  0  0  0
 18 19  1  0  0  0  0
 19 20  2  0  0  0  0
 20 21  1  0  0  0  0
 21 22  1  0  0  0  0
 22 23  1  0  0  0  0
 23 24  2  0  0  0  0
 24 25  1  0  0  0  0
 25 26  2  0  0  0  0
 26 27  1  0  0  0  0
 27 28  1  0  0  0  0
 21 29  1  0  0  0  0
  6 30  1  0  0  0  0
 30 31  2  0  0  0  0
 30 32  2  0  0  0  0
 30 33  1  0  0  0  0
 33 34  2  0  0  0  0
 34 35  1  0  0  0  0
 35 36  1  0  0  0  0
 35 37  1  0  0  0  0
 37 38  2  0  0  0  0
 29  7  1  0  0  0  0
 38 33  1  0  0  0  0
 20  9  1  0  0  0  0
 27 23  1  0  0  0  0
 17 12  1  0  0  0  0
  1 39  1  0  0  0  0
  1 40  1  0  0  0  0
  1 41  1  0  0  0  0
  5 42  1  0  0  0  0
  5 43  1  0  0  0  0
  7 44  1  0  0  0  0
  8 45  1  0  0  0  0
  8 46  1  0  0  0  0
 10 47  1  0  0  0  0
 13 48  1  0  0  0  0
 14 49  1  0  0  0  0
 15 50  1  0  0  0  0
 16 51  1  0  0  0  0
 17 52  1  0  0  0  0
 18 53  1  0  0  0  0
 19 54  1  0  0  0  0
 22 55  1  0  0  0  0
 22 56  1  0  0  0  0
 24 57  1  0  0  0  0
 26 58  1  0  0  0  0
 28 59  1  0  0  0  0
 28 60  1  0  0  0  0
 28 61  1  0  0  0  0
 29 62  1  0  0  0  0
 29 63  1  0  0  0  0
 34 64  1  0  0  0  0
 36 65  1  0  0  0  0
 36 66  1  0  0  0  0
 36 67  1  0  0  0  0
 37 68  1  0  0  0  0
M  END
>  <docking-score>
-19.37

$$$$
2IEJ_S48_3
foFlexX   03192112233D 1   1.00000     0.00000     0
FlexX 4.5.0 fol007
 68 72  0  0  0  0            999 V2000
   14.6422  136.1955   -9.4353 C   0  0  0  0  0  0  0  0  0  0  0  0
   15.8948  136.1493   -8.7631 O   0  0  0  0  0  0  0  0  0  0  0  0
   16.6612  134.9842   -8.6773 C   0  0  0  0  0  0  0  0  0  0  0  0
   16.4768  134.0351   -9.4863 O   0  0  0  0  0  0  0  0  0  0  0  0
   17.7054  134.8685   -7.6133 C   0  0  0  0  0  0  0  0  0  0  0  0
   17.7385  136.1031   -6.7862 N   0  0  0  0  0  0  0  0  0  0  0  0
   17.5058  135.7936   -5.3674 C   0  0  1  0  0  0  0  0  0  0  0  0
   16.7456  136.9239   -4.6897 C   0  0  0  0  0  0  0  0  0  0  0  0
   16.2443  136.5564   -3.3062 C   0  0  0  0  0  0  0  0  0  0  0  0
   15.8810  137.5909   -2.4516 C   0  0  0  0  0  0  0  0  0  0  0  0
   15.3855  137.2925   -1.1869 C   0  0  0  0  0  0  0  0  0  0  0  0
   15.0021  138.3589   -0.2812 C   0  0  0  0  0  0  0  0  0  0  0  0
   13.9879  138.1385    0.6445 C   0  0  0  0  0  0  0  0  0  0  0  0
   13.6248  139.1652    1.5096 C   0  0  0  0  0  0  0  0  0  0  0  0
   14.2676  140.3966    1.4502 C   0  0  0  0  0  0  0  0  0  0  0  0
   15.2810  140.6082    0.5206 C   0  0  0  0  0  0  0  0  0  0  0  0
   15.6511  139.5875   -0.3488 C   0  0  0  0  0  0  0  0  0  0  0  0
   15.2567  135.9683   -0.7842 C   0  0  0  0  0  0  0  0  0  0  0  0
   15.6368  134.9573   -1.6591 C   0  0  0  0  0  0  0  0  0  0  0  0
   16.1399  135.2185   -2.9357 C   0  0  0  0  0  0  0  0  0  0  0  0
   16.5222  134.1903   -3.8079 N   0  0  0  0  0  0  0  0  0  0  0  0
   16.8026  132.8184   -3.3468 C   0  0  0  0  0  0  0  0  0  0  0  0
   15.5337  132.0101   -3.1237 C   0  0  0  0  0  0  0  0  0  0  0  0
   15.4760  130.7179   -2.6910 C   0  0  0  0  0  0  0  0  0  0  0  0
   14.1568  130.3797   -2.6252 N   0  0  0  0  0  0  0  0  0  0  0  0
   13.4377  131.4158   -3.0006 C   0  0  0  0  0  0  0  0  0  0  0  0
   14.2621  132.4519   -3.3122 N   0  0  0  0  0  0  0  0  0  0  0  0
   13.8592  133.7889   -3.7730 C   0  0  0  0  0  0  0  0  0  0  0  0
   16.7465  134.4836   -5.2366 C   0  0  0  0  0  0  0  0  0  0  0  0
   19.2230  136.9880   -7.1133 S   0  0  0  0  0  0  0  0  0  0  0  0
   19.6961  136.7250   -8.5152 O   0  0  0  0  0  0  0  0  0  0  0  0
   18.9929  138.4639   -6.9385 O   0  0  0  0  0  0  0  0  0  0  0  0
   20.5137  136.4739   -6.0403 C   0  0  0  0  0  0  0  0  0  0  0  0
   20.3389  135.8279   -4.8549 C   0  0  0  0  0  0  0  0  0  0  0  0
   21.5893  135.6244   -4.3625 N   0  0  0  0  0  0  0  0  0  0  0  0
   21.9175  134.9568   -3.0949 C   0  0  0  0  0  0  0  0  0  0  0  0
   22.4877  136.1419   -5.2442 C   0  0  0  0  0  0  0  0  0  0  0  0
   21.8456  136.6590   -6.2656 N   0  0  0  0  0  0  0  0  0  0  0  0
   14.0097  135.5505   -9.0064 H   0  0  0  0  0  0  0  0  0  0  0  0
   14.2662  137.1203   -9.3764 H   0  0  0  0  0  0  0  0  0  0  0  0
   14.7700  135.9483  -10.3958 H   0  0  0  0  0  0  0  0  0  0  0  0
   18.5991  134.7342   -8.0415 H   0  0  0  0  0  0  0  0  0  0  0  0
   17.4949  134.0852   -7.0284 H   0  0  0  0  0  0  0  0  0  0  0  0
   18.3922  135.6925   -4.9157 H   0  0  0  0  0  0  0  0  0  0  0  0
   17.3542  137.7133   -4.6087 H   0  0  0  0  0  0  0  0  0  0  0  0
   15.9600  137.1658   -5.2593 H   0  0  0  0  0  0  0  0  0  0  0  0
   15.9753  138.5425   -2.7441 H   0  0  0  0  0  0  0  0  0  0  0  0
   13.5255  137.2529    0.6876 H   0  0  0  0  0  0  0  0  0  0  0  0
   12.8966  139.0168    2.1787 H   0  0  0  0  0  0  0  0  0  0  0  0
   14.0017  141.1302    2.0756 H   0  0  0  0  0  0  0  0  0  0  0  0
   15.7431  141.4940    0.4775 H   0  0  0  0  0  0  0  0  0  0  0  0
   16.3791  139.7359   -1.0181 H   0  0  0  0  0  0  0  0  0  0  0  0
   14.8959  135.7462    0.1217 H   0  0  0  0  0  0  0  0  0  0  0  0
   15.5467  134.0063   -1.3632 H   0  0  0  0  0  0  0  0  0  0  0  0
   17.3083  132.8663   -2.4854 H   0  0  0  0  0  0  0  0  0  0  0  0
   17.3608  132.3559   -4.0357 H   0  0  0  0  0  0  0  0  0  0  0  0
   16.2531  130.1305   -2.4650 H   0  0  0  0  0  0  0  0  0  0  0  0
   12.4392  131.4380   -3.0493 H   0  0  0  0  0  0  0  0  0  0  0  0
   14.6741  134.3457   -3.9337 H   0  0  0  0  0  0  0  0  0  0  0  0
   13.3393  133.7058   -4.6232 H   0  0  0  0  0  0  0  0  0  0  0  0
   13.2901  134.2244   -3.0755 H   0  0  0  0  0  0  0  0  0  0  0  0
   15.8658  134.5599   -5.7041 H   0  0  0  0  0  0  0  0  0  0  0  0
   17.2802  133.7455   -5.6493 H   0  0  0  0  0  0  0  0  0  0  0  0
   19.4722  135.5593   -4.4345 H   0  0  0  0  0  0  0  0  0  0  0  0
   22.9101  134.9389   -2.9749 H   0  0  0  0  0  0  0  0  0  0  0  0
   21.4990  135.4568   -2.3367 H   0  0  0  0  0  0  0  0  0  0  0  0
   21.5667  134.0205   -3.1107 H   0  0  0  0  0  0  0  0  0  0  0  0
   23.4813  136.1300   -5.1316 H   0  0  0  0  0  0  0  0  0  0  0  0
  1  2  1  0  0  0  0
  2  3  1  0  0  0  0
  3  4  2  0  0  0  0
  3  5  1  0  0  0  0
  5  6  1  0  0  0  0
  6  7  1  0  0  0  0
  7  8  1  0  0  0  0
  8  9  1  0  0  0  0
  9 10  2  0  0  0  0
 10 11  1  0  0  0  0
 11 12  1  0  0  0  0
 12 13  2  0  0  0  0
 13 14  1  0  0  0  0
 14 15  2  0  0  0  0
 15 16  1  0  0  0  0
 16 17  2  0  0  0  0
 11 18  2  0  0  0  0
 18 19  1  0  0  0  0
 19 20  2  0  0  0  0
 20 21  1  0  0  0  0
 21 22  1  0  0  0  0
 22 23  1  0  0  0  0
 23 24  2  0  0  0  0
 24 25  1  0  0  0  0
 25 26  2  0  0  0  0
 26 27  1  0  0  0  0
 27 28  1  0  0  0  0
 21 29  1  0  0  0  0
  6 30  1  0  0  0  0
 30 31  2  0  0  0  0
 30 32  2  0  0  0  0
 30 33  1  0  0  0  0
 33 34  2  0  0  0  0
 34 35  1  0  0  0  0
 35 36  1  0  0  0  0
 35 37  1  0  0  0  0
 37 38  2  0  0  0  0
 29  7  1  0  0  0  0
 38 33  1  0  0  0  0
 20  9  1  0  0  0  0
 27 23  1  0  0  0  0
 17 12  1  0  0  0  0
  1 39  1  0  0  0  0
  1 40  1  0  0  0  0
  1 41  1  0  0  0  0
  5 42  1  0  0  0  0
  5 43  1  0  0  0  0
  7 44  1  0  0  0  0
  8 45  1  0  0  0  0
  8 46  1  0  0  0  0
 10 47  1  0  0  0  0
 13 48  1  0  0  0  0
 14 49  1  0  0  0  0
 15 50  1  0  0  0  0
 16 51  1  0  0  0  0
 17 52  1  0  0  0  0
 18 53  1  0  0  0  0
 19 54  1  0  0  0  0
 22 55  1  0  0  0  0
 22 56  1  0  0  0  0
 24 57  1  0  0  0  0
 26 58  1  0  0  0  0
 28 59  1  0  0  0  0
 28 60  1  0  0  0  0
 28 61  1  0  0  0  0
 29 62  1  0  0  0  0
 29 63  1  0  0  0  0
 34 64  1  0  0  0  0
 36 65  1  0  0  0  0
 36 66  1  0  0  0  0
 36 67  1  0  0  0  0
 37 68  1  0  0  0  0
M  END
>  <docking-score>
-18.83

$$$$
