1JCQ_739_1
foFlexX   03192112203D 1   1.00000     0.00000     0
FlexX 4.5.0 fol007
 74 74  0  0  0  0            999 V2000
   19.5398  136.9398    5.4128 C   0  0  0  0  0  0  0  0  0  0  0  0
   20.5133  135.8137    5.0631 C   0  0  0  0  0  0  0  0  0  0  0  0
   21.1559  136.0309    3.7329 C   0  0  2  0  0  0  0  0  0  0  0  0
   20.3654  137.0335    2.8700 C   0  0  0  0  0  0  0  0  0  0  0  0
   21.5489  134.8409    2.9546 C   0  0  2  0  0  0  0  0  0  0  0  0
   20.5438  133.7685    2.6905 C   0  0  0  0  0  0  0  0  0  0  0  0
   20.9086  133.0336    1.6346 O   0  0  0  0  0  0  0  0  0  0  0  0
   20.4839  133.4104    0.3522 C   0  0  2  0  0  0  0  0  0  0  0  0
   19.0381  133.4808    0.4061 C   0  0  0  0  0  0  0  0  0  0  0  0
   18.3254  134.7007    0.7595 C   0  0  0  0  0  0  0  0  0  0  0  0
   18.4944  135.8413   -0.0180 C   0  0  0  0  0  0  0  0  0  0  0  0
   17.8113  137.0031    0.3253 C   0  0  0  0  0  0  0  0  0  0  0  0
   16.9697  137.0244    1.4318 C   0  0  0  0  0  0  0  0  0  0  0  0
   16.8070  135.8786    2.2041 C   0  0  0  0  0  0  0  0  0  0  0  0
   17.4859  134.7119    1.8688 C   0  0  0  0  0  0  0  0  0  0  0  0
   21.0715  132.4713   -0.6501 C   0  0  0  0  0  0  0  0  0  0  0  0
   21.2428  131.3067   -0.1295 O   0  0  0  0  0  0  0  0  0  0  0  0
   21.4419  132.6885   -1.9710 N   0  0  0  0  0  0  0  0  0  0  0  0
   21.8002  132.8984   -3.2480 C   0  0  1  0  0  0  0  0  0  0  0  0
   20.8049  133.2559   -4.2543 C   0  0  0  0  0  0  0  0  0  0  0  0
   19.5636  133.9885   -4.1031 C   0  0  0  0  0  0  0  0  0  0  0  0
   18.0882  133.1775   -3.7531 S   0  0  0  0  0  0  0  0  0  0  0  0
   17.6239  131.9865   -4.9955 C   0  0  0  0  0  0  0  0  0  0  0  0
   16.9707  133.9153   -3.1514 O   0  0  0  0  0  0  0  0  0  0  0  0
   18.4988  132.2013   -2.5468 O   0  0  0  0  0  0  0  0  0  0  0  0
   22.9605  133.8843   -3.4657 C   0  0  0  0  0  0  0  0  0  0  0  0
   22.7559  134.6783   -4.3770 O   0  0  0  0  0  0  0  0  0  0  0  0
   24.0949  133.8825   -2.7308 O   0  5  0  0  0  0  0  0  0  0  0  0
   22.8773  134.4140    3.2390 N   0  3  0  0  0  0  0  0  0  0  0  0
   23.6248  135.1473    4.1885 C   0  0  0  0  0  0  0  0  0  0  0  0
   25.0035  134.7463    4.5177 C   0  0  2  0  0  0  0  0  0  0  0  0
   25.5748  134.1088    3.2880 N   0  3  0  0  0  0  0  0  0  0  0  0
   25.1887  133.6896    5.5698 C   0  0  0  0  0  0  0  0  0  0  0  0
   23.9555  133.7546    6.8117 S   0  0  0  0  0  0  0  0  0  0  0  0
   18.8202  136.9855    4.7198 H   0  0  0  0  0  0  0  0  0  0  0  0
   19.1302  136.7606    6.3073 H   0  0  0  0  0  0  0  0  0  0  0  0
   20.0322  137.8097    5.4399 H   0  0  0  0  0  0  0  0  0  0  0  0
   20.0135  134.9478    5.0438 H   0  0  0  0  0  0  0  0  0  0  0  0
   21.2255  135.7720    5.7639 H   0  0  0  0  0  0  0  0  0  0  0  0
   22.0168  136.4959    3.9391 H   0  0  0  0  0  0  0  0  0  0  0  0
   19.5368  136.5941    2.5232 H   0  0  0  0  0  0  0  0  0  0  0  0
   20.1148  137.8264    3.4255 H   0  0  0  0  0  0  0  0  0  0  0  0
   20.9318  137.3308    2.1013 H   0  0  0  0  0  0  0  0  0  0  0  0
   21.6609  135.2329    2.0415 H   0  0  0  0  0  0  0  0  0  0  0  0
   19.6549  134.1885    2.5076 H   0  0  0  0  0  0  0  0  0  0  0  0
   20.4743  133.1776    3.4942 H   0  0  0  0  0  0  0  0  0  0  0  0
   20.8346  134.3278    0.1639 H   0  0  0  0  0  0  0  0  0  0  0  0
   18.7512  132.7897    1.0695 H   0  0  0  0  0  0  0  0  0  0  0  0
   18.7137  133.2238   -0.5043 H   0  0  0  0  0  0  0  0  0  0  0  0
   19.0995  135.8263   -0.8140 H   0  0  0  0  0  0  0  0  0  0  0  0
   17.9262  137.8286   -0.2273 H   0  0  0  0  0  0  0  0  0  0  0  0
   16.4813  137.8632    1.6725 H   0  0  0  0  0  0  0  0  0  0  0  0
   16.2020  135.8939    3.0002 H   0  0  0  0  0  0  0  0  0  0  0  0
   17.3713  133.8864    2.4215 H   0  0  0  0  0  0  0  0  0  0  0  0
   21.0178  133.5936   -1.9410 H   0  0  0  0  0  0  0  0  0  0  0  0
   22.1601  132.0172   -3.5546 H   0  0  0  0  0  0  0  0  0  0  0  0
   20.5274  132.3797   -4.6484 H   0  0  0  0  0  0  0  0  0  0  0  0
   21.3187  133.7793   -4.9339 H   0  0  0  0  0  0  0  0  0  0  0  0
   19.4193  134.4819   -4.9609 H   0  0  0  0  0  0  0  0  0  0  0  0
   19.7096  134.6439   -3.3621 H   0  0  0  0  0  0  0  0  0  0  0  0
   17.6166  132.4269   -5.8933 H   0  0  0  0  0  0  0  0  0  0  0  0
   18.2825  131.2341   -4.9987 H   0  0  0  0  0  0  0  0  0  0  0  0
   16.7120  131.6303   -4.7916 H   0  0  0  0  0  0  0  0  0  0  0  0
   23.3867  134.4365    2.3788 H   0  0  0  0  0  0  0  0  0  0  0  0
   22.8218  133.4716    3.5689 H   0  0  0  0  0  0  0  0  0  0  0  0
   23.1065  135.1233    5.0433 H   0  0  0  0  0  0  0  0  0  0  0  0
   23.6714  136.0883    3.8532 H   0  0  0  0  0  0  0  0  0  0  0  0
   25.5404  135.5554    4.7566 H   0  0  0  0  0  0  0  0  0  0  0  0
   25.9056  133.1918    3.5109 H   0  0  0  0  0  0  0  0  0  0  0  0
   24.8661  134.0458    2.5853 H   0  0  0  0  0  0  0  0  0  0  0  0
   26.3339  134.6633    2.9471 H   0  0  0  0  0  0  0  0  0  0  0  0
   26.0828  133.8177    5.9989 H   0  0  0  0  0  0  0  0  0  0  0  0
   25.1550  132.7914    5.1314 H   0  0  0  0  0  0  0  0  0  0  0  0
   23.1851  133.1744    6.5472 H   0  0  0  0  0  0  0  0  0  0  0  0
  1  2  1  0  0  0  0
  2  3  1  0  0  0  0
  3  4  1  0  0  0  0
  3  5  1  0  0  0  0
  5  6  1  0  0  0  0
  6  7  1  0  0  0  0
  7  8  1  0  0  0  0
  8  9  1  0  0  0  0
  9 10  1  0  0  0  0
 10 11  2  0  0  0  0
 11 12  1  0  0  0  0
 12 13  2  0  0  0  0
 13 14  1  0  0  0  0
 14 15  2  0  0  0  0
  8 16  1  0  0  0  0
 16 17  2  0  0  0  0
 16 18  1  0  0  0  0
 18 19  1  0  0  0  0
 19 20  1  0  0  0  0
 20 21  1  0  0  0  0
 21 22  1  0  0  0  0
 22 23  1  0  0  0  0
 22 24  2  0  0  0  0
 22 25  2  0  0  0  0
 19 26  1  0  0  0  0
 26 27  2  0  0  0  0
 26 28  1  0  0  0  0
  5 29  1  0  0  0  0
 29 30  1  0  0  0  0
 30 31  1  0  0  0  0
 31 32  1  0  0  0  0
 31 33  1  0  0  0  0
 33 34  1  0  0  0  0
 15 10  1  0  0  0  0
  1 35  1  0  0  0  0
  1 36  1  0  0  0  0
  1 37  1  0  0  0  0
  2 38  1  0  0  0  0
  2 39  1  0  0  0  0
  3 40  1  0  0  0  0
  4 41  1  0  0  0  0
  4 42  1  0  0  0  0
  4 43  1  0  0  0  0
  5 44  1  0  0  0  0
  6 45  1  0  0  0  0
  6 46  1  0  0  0  0
  8 47  1  0  0  0  0
  9 48  1  0  0  0  0
  9 49  1  0  0  0  0
 11 50  1  0  0  0  0
 12 51  1  0  0  0  0
 13 52  1  0  0  0  0
 14 53  1  0  0  0  0
 15 54  1  0  0  0  0
 18 55  1  0  0  0  0
 19 56  1  0  0  0  0
 20 57  1  0  0  0  0
 20 58  1  0  0  0  0
 21 59  1  0  0  0  0
 21 60  1  0  0  0  0
 23 61  1  0  0  0  0
 23 62  1  0  0  0  0
 23 63  1  0  0  0  0
 29 64  1  0  0  0  0
 29 65  1  0  0  0  0
 30 66  1  0  0  0  0
 30 67  1  0  0  0  0
 31 68  1  0  0  0  0
 32 69  1  0  0  0  0
 32 70  1  0  0  0  0
 32 71  1  0  0  0  0
 33 72  1  0  0  0  0
 33 73  1  0  0  0  0
 34 74  1  0  0  0  0
M  CHG  3  28  -1  29   1  32   1
M  END
>  <docking-score>
-20.77

$$$$
1JCQ_739_2
foFlexX   03192112203D 1   1.00000     0.00000     0
FlexX 4.5.0 fol007
 74 74  0  0  0  0            999 V2000
   18.9378  135.4409   -3.8482 C   0  0  0  0  0  0  0  0  0  0  0  0
   19.1144  135.9145   -2.4050 C   0  0  0  0  0  0  0  0  0  0  0  0
   20.0624  137.0642   -2.3121 C   0  0  2  0  0  0  0  0  0  0  0  0
   19.3229  138.4080   -2.1640 C   0  0  0  0  0  0  0  0  0  0  0  0
   21.1426  137.1497   -3.3132 C   0  0  2  0  0  0  0  0  0  0  0  0
   20.8600  137.7461   -4.6528 C   0  0  0  0  0  0  0  0  0  0  0  0
   20.6359  139.0598   -4.5436 O   0  0  0  0  0  0  0  0  0  0  0  0
   20.3503  139.8087   -5.6945 C   0  0  2  0  0  0  0  0  0  0  0  0
   19.7887  141.0626   -5.2355 C   0  0  0  0  0  0  0  0  0  0  0  0
   19.0272  141.1744   -3.9991 C   0  0  0  0  0  0  0  0  0  0  0  0
   19.4772  142.0224   -2.9929 C   0  0  0  0  0  0  0  0  0  0  0  0
   18.7456  142.1241   -1.8144 C   0  0  0  0  0  0  0  0  0  0  0  0
   17.5787  141.3876   -1.6442 C   0  0  0  0  0  0  0  0  0  0  0  0
   17.1362  140.5415   -2.6561 C   0  0  0  0  0  0  0  0  0  0  0  0
   17.8611  140.4330   -3.8382 C   0  0  0  0  0  0  0  0  0  0  0  0
   19.4995  138.9892   -6.6091 C   0  0  0  0  0  0  0  0  0  0  0  0
   20.2341  138.3054   -7.4149 O   0  0  0  0  0  0  0  0  0  0  0  0
   18.1169  138.8936   -6.6997 N   0  0  0  0  0  0  0  0  0  0  0  0
   16.7800  138.8011   -6.7875 C   0  0  1  0  0  0  0  0  0  0  0  0
   16.0543  137.7579   -6.0692 C   0  0  0  0  0  0  0  0  0  0  0  0
   16.1695  136.3170   -6.1728 C   0  0  0  0  0  0  0  0  0  0  0  0
   15.2103  135.4250   -7.2869 S   0  0  0  0  0  0  0  0  0  0  0  0
   14.8452  133.7687   -6.7381 C   0  0  0  0  0  0  0  0  0  0  0  0
   15.4420  135.5644   -8.7298 O   0  0  0  0  0  0  0  0  0  0  0  0
   13.7664  136.1105   -7.1384 O   0  0  0  0  0  0  0  0  0  0  0  0
   15.9985  140.0962   -6.5087 C   0  0  0  0  0  0  0  0  0  0  0  0
   14.9028  140.1274   -7.0578 O   0  0  0  0  0  0  0  0  0  0  0  0
   16.4650  141.1032   -5.7373 O   0  5  0  0  0  0  0  0  0  0  0  0
   22.0038  136.0158   -3.2887 N   0  3  0  0  0  0  0  0  0  0  0  0
   22.7008  135.7332   -2.0918 C   0  0  0  0  0  0  0  0  0  0  0  0
   22.1176  136.0987   -0.7894 C   0  0  2  0  0  0  0  0  0  0  0  0
   23.2630  136.3792    0.1350 N   0  3  0  0  0  0  0  0  0  0  0  0
   21.3352  135.0457   -0.0568 C   0  0  0  0  0  0  0  0  0  0  0  0
   21.8554  133.4219   -0.4573 S   0  0  0  0  0  0  0  0  0  0  0  0
   19.8218  135.1497   -4.2140 H   0  0  0  0  0  0  0  0  0  0  0  0
   18.2983  134.6725   -3.8710 H   0  0  0  0  0  0  0  0  0  0  0  0
   18.5780  136.1907   -4.4034 H   0  0  0  0  0  0  0  0  0  0  0  0
   19.4690  135.1571   -1.8567 H   0  0  0  0  0  0  0  0  0  0  0  0
   18.2251  136.1981   -2.0462 H   0  0  0  0  0  0  0  0  0  0  0  0
   20.5337  136.9356   -1.4395 H   0  0  0  0  0  0  0  0  0  0  0  0
   18.9208  138.6658   -3.0426 H   0  0  0  0  0  0  0  0  0  0  0  0
   18.5991  138.3166   -1.4801 H   0  0  0  0  0  0  0  0  0  0  0  0
   19.9690  139.1138   -1.8733 H   0  0  0  0  0  0  0  0  0  0  0  0
   21.7300  137.8500   -2.9075 H   0  0  0  0  0  0  0  0  0  0  0  0
   20.0522  137.3060   -5.0450 H   0  0  0  0  0  0  0  0  0  0  0  0
   21.6459  137.5952   -5.2524 H   0  0  0  0  0  0  0  0  0  0  0  0
   21.2124  140.0048   -6.1617 H   0  0  0  0  0  0  0  0  0  0  0  0
   19.1815  141.3781   -5.9648 H   0  0  0  0  0  0  0  0  0  0  0  0
   20.5582  141.6948   -5.1456 H   0  0  0  0  0  0  0  0  0  0  0  0
   20.3164  142.5524   -3.1152 H   0  0  0  0  0  0  0  0  0  0  0  0
   19.0609  142.7310   -1.0848 H   0  0  0  0  0  0  0  0  0  0  0  0
   17.0574  141.4661   -0.7944 H   0  0  0  0  0  0  0  0  0  0  0  0
   16.2972  140.0114   -2.5335 H   0  0  0  0  0  0  0  0  0  0  0  0
   17.5460  139.8260   -4.5678 H   0  0  0  0  0  0  0  0  0  0  0  0
   18.0247  139.4334   -5.8630 H   0  0  0  0  0  0  0  0  0  0  0  0
   16.6059  138.6071   -7.7530 H   0  0  0  0  0  0  0  0  0  0  0  0
   15.0926  137.9433   -6.2710 H   0  0  0  0  0  0  0  0  0  0  0  0
   16.2359  137.9509   -5.1050 H   0  0  0  0  0  0  0  0  0  0  0  0
   15.9648  135.9502   -5.2653 H   0  0  0  0  0  0  0  0  0  0  0  0
   17.1236  136.1246   -6.4026 H   0  0  0  0  0  0  0  0  0  0  0  0
   15.6968  133.3001   -6.5031 H   0  0  0  0  0  0  0  0  0  0  0  0
   14.2529  133.8072   -5.9333 H   0  0  0  0  0  0  0  0  0  0  0  0
   14.3811  133.2697   -7.4700 H   0  0  0  0  0  0  0  0  0  0  0  0
   22.6877  136.1472   -4.0063 H   0  0  0  0  0  0  0  0  0  0  0  0
   21.4453  135.2145   -3.5031 H   0  0  0  0  0  0  0  0  0  0  0  0
   23.5816  136.2024   -2.1543 H   0  0  0  0  0  0  0  0  0  0  0  0
   22.8503  134.7446   -2.0726 H   0  0  0  0  0  0  0  0  0  0  0  0
   21.5590  136.9219   -0.8910 H   0  0  0  0  0  0  0  0  0  0  0  0
   23.4811  135.5537    0.6555 H   0  0  0  0  0  0  0  0  0  0  0  0
   24.0616  136.6575   -0.3987 H   0  0  0  0  0  0  0  0  0  0  0  0
   23.0107  137.1136    0.7650 H   0  0  0  0  0  0  0  0  0  0  0  0
   20.3687  135.1406   -0.2951 H   0  0  0  0  0  0  0  0  0  0  0  0
   21.4514  135.1861    0.9265 H   0  0  0  0  0  0  0  0  0  0  0  0
   22.8196  133.3119   -0.2164 H   0  0  0  0  0  0  0  0  0  0  0  0
  1  2  1  0  0  0  0
  2  3  1  0  0  0  0
  3  4  1  0  0  0  0
  3  5  1  0  0  0  0
  5  6  1  0  0  0  0
  6  7  1  0  0  0  0
  7  8  1  0  0  0  0
  8  9  1  0  0  0  0
  9 10  1  0  0  0  0
 10 11  2  0  0  0  0
 11 12  1  0  0  0  0
 12 13  2  0  0  0  0
 13 14  1  0  0  0  0
 14 15  2  0  0  0  0
  8 16  1  0  0  0  0
 16 17  2  0  0  0  0
 16 18  1  0  0  0  0
 18 19  1  0  0  0  0
 19 20  1  0  0  0  0
 20 21  1  0  0  0  0
 21 22  1  0  0  0  0
 22 23  1  0  0  0  0
 22 24  2  0  0  0  0
 22 25  2  0  0  0  0
 19 26  1  0  0  0  0
 26 27  2  0  0  0  0
 26 28  1  0  0  0  0
  5 29  1  0  0  0  0
 29 30  1  0  0  0  0
 30 31  1  0  0  0  0
 31 32  1  0  0  0  0
 31 33  1  0  0  0  0
 33 34  1  0  0  0  0
 15 10  1  0  0  0  0
  1 35  1  0  0  0  0
  1 36  1  0  0  0  0
  1 37  1  0  0  0  0
  2 38  1  0  0  0  0
  2 39  1  0  0  0  0
  3 40  1  0  0  0  0
  4 41  1  0  0  0  0
  4 42  1  0  0  0  0
  4 43  1  0  0  0  0
  5 44  1  0  0  0  0
  6 45  1  0  0  0  0
  6 46  1  0  0  0  0
  8 47  1  0  0  0  0
  9 48  1  0  0  0  0
  9 49  1  0  0  0  0
 11 50  1  0  0  0  0
 12 51  1  0  0  0  0
 13 52  1  0  0  0  0
 14 53  1  0  0  0  0
 15 54  1  0  0  0  0
 18 55  1  0  0  0  0
 19 56  1  0  0  0  0
 20 57  1  0  0  0  0
 20 58  1  0  0  0  0
 21 59  1  0  0  0  0
 21 60  1  0  0  0  0
 23 61  1  0  0  0  0
 23 62  1  0  0  0  0
 23 63  1  0  0  0  0
 29 64  1  0  0  0  0
 29 65  1  0  0  0  0
 30 66  1  0  0  0  0
 30 67  1  0  0  0  0
 31 68  1  0  0  0  0
 32 69  1  0  0  0  0
 32 70  1  0  0  0  0
 32 71  1  0  0  0  0
 33 72  1  0  0  0  0
 33 73  1  0  0  0  0
 34 74  1  0  0  0  0
M  CHG  3  28  -1  29   1  32   1
M  END
>  <docking-score>
-20.17

$$$$
1JCQ_739_3
foFlexX   03192112203D 1   1.00000     0.00000     0
FlexX 4.5.0 fol007
 74 74  0  0  0  0            999 V2000
   22.5564  137.3647    2.0795 C   0  0  0  0  0  0  0  0  0  0  0  0
   21.9610  137.2873    3.4859 C   0  0  0  0  0  0  0  0  0  0  0  0
   21.1574  136.0438    3.6788 C   0  0  2  0  0  0  0  0  0  0  0  0
   20.9485  135.7205    5.1709 C   0  0  0  0  0  0  0  0  0  0  0  0
   21.5505  134.8437    2.9162 C   0  0  2  0  0  0  0  0  0  0  0  0
   20.5455  133.7679    2.6657 C   0  0  0  0  0  0  0  0  0  0  0  0
   20.9105  133.0193    1.6197 O   0  0  0  0  0  0  0  0  0  0  0  0
   20.4863  133.3794    0.3323 C   0  0  2  0  0  0  0  0  0  0  0  0
   19.0405  133.4506    0.3848 C   0  0  0  0  0  0  0  0  0  0  0  0
   18.3278  134.6752    0.7221 C   0  0  0  0  0  0  0  0  0  0  0  0
   17.9657  135.5568   -0.2906 C   0  0  0  0  0  0  0  0  0  0  0  0
   17.2857  136.7247    0.0383 C   0  0  0  0  0  0  0  0  0  0  0  0
   16.9715  137.0074    1.3628 C   0  0  0  0  0  0  0  0  0  0  0  0
   17.3381  136.1196    2.3695 C   0  0  0  0  0  0  0  0  0  0  0  0
   18.0184  134.9491    2.0504 C   0  0  0  0  0  0  0  0  0  0  0  0
   21.0741  132.4272   -0.6574 C   0  0  0  0  0  0  0  0  0  0  0  0
   21.2451  131.2695   -0.1216 O   0  0  0  0  0  0  0  0  0  0  0  0
   21.4450  132.6271   -1.9809 N   0  0  0  0  0  0  0  0  0  0  0  0
   21.8037  132.8203   -3.2605 C   0  0  1  0  0  0  0  0  0  0  0  0
   20.8088  133.1647   -4.2716 C   0  0  0  0  0  0  0  0  0  0  0  0
   19.5676  133.8993   -4.1305 C   0  0  0  0  0  0  0  0  0  0  0  0
   18.0920  133.0931   -3.7704 S   0  0  0  0  0  0  0  0  0  0  0  0
   17.6279  131.8861   -4.9973 C   0  0  0  0  0  0  0  0  0  0  0  0
   16.9744  133.8388   -3.1788 O   0  0  0  0  0  0  0  0  0  0  0  0
   18.5021  132.1327   -2.5513 O   0  0  0  0  0  0  0  0  0  0  0  0
   22.9643  133.8031   -3.4906 C   0  0  0  0  0  0  0  0  0  0  0  0
   22.7600  134.5851   -4.4123 O   0  0  0  0  0  0  0  0  0  0  0  0
   24.0984  133.8108   -2.7554 O   0  5  0  0  0  0  0  0  0  0  0  0
   22.8788  134.4203    3.2066 N   0  3  0  0  0  0  0  0  0  0  0  0
   23.6261  135.1659    4.1467 C   0  0  0  0  0  0  0  0  0  0  0  0
   25.0046  134.7691    4.4816 C   0  0  2  0  0  0  0  0  0  0  0  0
   25.5763  134.1155    3.2605 N   0  3  0  0  0  0  0  0  0  0  0  0
   25.1894  133.7262    5.5474 C   0  0  0  0  0  0  0  0  0  0  0  0
   23.9557  133.8075    6.7880 S   0  0  0  0  0  0  0  0  0  0  0  0
   21.8186  137.3593    1.4045 H   0  0  0  0  0  0  0  0  0  0  0  0
   23.0860  138.2079    1.9877 H   0  0  0  0  0  0  0  0  0  0  0  0
   23.1538  136.5775    1.9267 H   0  0  0  0  0  0  0  0  0  0  0  0
   21.3700  138.0807    3.6315 H   0  0  0  0  0  0  0  0  0  0  0  0
   22.7052  137.2989    4.1537 H   0  0  0  0  0  0  0  0  0  0  0  0
   20.2459  136.2744    3.3383 H   0  0  0  0  0  0  0  0  0  0  0  0
   21.7994  135.3645    5.5572 H   0  0  0  0  0  0  0  0  0  0  0  0
   20.6836  136.5525    5.6583 H   0  0  0  0  0  0  0  0  0  0  0  0
   20.2269  135.0347    5.2656 H   0  0  0  0  0  0  0  0  0  0  0  0
   21.6629  135.2237    1.9981 H   0  0  0  0  0  0  0  0  0  0  0  0
   19.6567  134.1856    2.4771 H   0  0  0  0  0  0  0  0  0  0  0  0
   20.4756  133.1877    3.4771 H   0  0  0  0  0  0  0  0  0  0  0  0
   20.8372  134.2942    0.1322 H   0  0  0  0  0  0  0  0  0  0  0  0
   18.7533  132.7683    1.0571 H   0  0  0  0  0  0  0  0  0  0  0  0
   18.7164  133.1818   -0.5222 H   0  0  0  0  0  0  0  0  0  0  0  0
   18.1914  135.3537   -1.2434 H   0  0  0  0  0  0  0  0  0  0  0  0
   17.0211  137.3652   -0.6826 H   0  0  0  0  0  0  0  0  0  0  0  0
   16.4821  137.8487    1.5920 H   0  0  0  0  0  0  0  0  0  0  0  0
   17.1125  136.3230    3.3222 H   0  0  0  0  0  0  0  0  0  0  0  0
   18.2833  134.3086    2.7712 H   0  0  0  0  0  0  0  0  0  0  0  0
   21.0210  133.5326   -1.9629 H   0  0  0  0  0  0  0  0  0  0  0  0
   22.1637  131.9352   -3.5554 H   0  0  0  0  0  0  0  0  0  0  0  0
   20.5314  132.2835   -4.6544 H   0  0  0  0  0  0  0  0  0  0  0  0
   21.3229  133.6792   -4.9579 H   0  0  0  0  0  0  0  0  0  0  0  0
   19.4236  134.3815   -4.9947 H   0  0  0  0  0  0  0  0  0  0  0  0
   19.7134  134.5643   -3.3980 H   0  0  0  0  0  0  0  0  0  0  0  0
   17.6210  132.3147   -5.9007 H   0  0  0  0  0  0  0  0  0  0  0  0
   18.2865  131.1336   -4.9905 H   0  0  0  0  0  0  0  0  0  0  0  0
   16.7159  131.5327   -4.7890 H   0  0  0  0  0  0  0  0  0  0  0  0
   23.3886  134.4316    2.3463 H   0  0  0  0  0  0  0  0  0  0  0  0
   22.8231  133.4823    3.5488 H   0  0  0  0  0  0  0  0  0  0  0  0
   23.1075  135.1532    5.0016 H   0  0  0  0  0  0  0  0  0  0  0  0
   23.6729  136.1024    3.7992 H   0  0  0  0  0  0  0  0  0  0  0  0
   25.5415  135.5812    4.7101 H   0  0  0  0  0  0  0  0  0  0  0  0
   25.9069  133.2015    3.4955 H   0  0  0  0  0  0  0  0  0  0  0  0
   24.8678  134.0434    2.5584 H   0  0  0  0  0  0  0  0  0  0  0  0
   26.3356  134.6654    2.9126 H   0  0  0  0  0  0  0  0  0  0  0  0
   26.0833  133.8598    5.9751 H   0  0  0  0  0  0  0  0  0  0  0  0
   25.1557  132.8224    5.1207 H   0  0  0  0  0  0  0  0  0  0  0  0
   23.1854  133.2240    6.5308 H   0  0  0  0  0  0  0  0  0  0  0  0
  1  2  1  0  0  0  0
  2  3  1  0  0  0  0
  3  4  1  0  0  0  0
  3  5  1  0  0  0  0
  5  6  1  0  0  0  0
  6  7  1  0  0  0  0
  7  8  1  0  0  0  0
  8  9  1  0  0  0  0
  9 10  1  0  0  0  0
 10 11  2  0  0  0  0
 11 12  1  0  0  0  0
 12 13  2  0  0  0  0
 13 14  1  0  0  0  0
 14 15  2  0  0  0  0
  8 16  1  0  0  0  0
 16 17  2  0  0  0  0
 16 18  1  0  0  0  0
 18 19  1  0  0  0  0
 19 20  1  0  0  0  0
 20 21  1  0  0  0  0
 21 22  1  0  0  0  0
 22 23  1  0  0  0  0
 22 24  2  0  0  0  0
 22 25  2  0  0  0  0
 19 26  1  0  0  0  0
 26 27  2  0  0  0  0
 26 28  1  0  0  0  0
  5 29  1  0  0  0  0
 29 30  1  0  0  0  0
 30 31  1  0  0  0  0
 31 32  1  0  0  0  0
 31 33  1  0  0  0  0
 33 34  1  0  0  0  0
 15 10  1  0  0  0  0
  1 35  1  0  0  0  0
  1 36  1  0  0  0  0
  1 37  1  0  0  0  0
  2 38  1  0  0  0  0
  2 39  1  0  0  0  0
  3 40  1  0  0  0  0
  4 41  1  0  0  0  0
  4 42  1  0  0  0  0
  4 43  1  0  0  0  0
  5 44  1  0  0  0  0
  6 45  1  0  0  0  0
  6 46  1  0  0  0  0
  8 47  1  0  0  0  0
  9 48  1  0  0  0  0
  9 49  1  0  0  0  0
 11 50  1  0  0  0  0
 12 51  1  0  0  0  0
 13 52  1  0  0  0  0
 14 53  1  0  0  0  0
 15 54  1  0  0  0  0
 18 55  1  0  0  0  0
 19 56  1  0  0  0  0
 20 57  1  0  0  0  0
 20 58  1  0  0  0  0
 21 59  1  0  0  0  0
 21 60  1  0  0  0  0
 23 61  1  0  0  0  0
 23 62  1  0  0  0  0
 23 63  1  0  0  0  0
 29 64  1  0  0  0  0
 29 65  1  0  0  0  0
 30 66  1  0  0  0  0
 30 67  1  0  0  0  0
 31 68  1  0  0  0  0
 32 69  1  0  0  0  0
 32 70  1  0  0  0  0
 32 71  1  0  0  0  0
 33 72  1  0  0  0  0
 33 73  1  0  0  0  0
 34 74  1  0  0  0  0
M  CHG  3  28  -1  29   1  32   1
M  END
>  <docking-score>
-19.99

$$$$
1SA4_JAN_1
foFlexX   03192112203D 1   1.00000     0.00000     0
FlexX 4.5.0 fol007
 57 61  0  0  0  0            999 V2000
   19.7093  135.7772   -4.3701 C   0  0  0  0  0  0  0  0  0  0  0  0
   20.8394  134.8652   -4.1394 N   0  0  0  0  0  0  0  0  0  0  0  0
   22.1582  135.2025   -4.2306 C   0  0  0  0  0  0  0  0  0  0  0  0
   22.8667  134.1297   -3.9549 N   0  0  0  0  0  0  0  0  0  0  0  0
   22.0157  133.0955   -3.6849 C   0  0  0  0  0  0  0  0  0  0  0  0
   20.7348  133.5512   -3.7996 C   0  0  0  0  0  0  0  0  0  0  0  0
   19.4422  132.7424   -3.5817 C   0  0  1  0  0  0  0  0  0  0  0  0
   19.6889  131.3245   -3.9458 N   0  3  0  0  0  0  0  0  0  0  0  0
   19.0451  132.8313   -2.0875 C   0  0  0  0  0  0  0  0  0  0  0  0
   17.9295  132.1323   -1.6367 C   0  0  0  0  0  0  0  0  0  0  0  0
   17.5600  132.2009   -0.2975 C   0  0  0  0  0  0  0  0  0  0  0  0
   18.3173  132.9738    0.5758 C   0  0  0  0  0  0  0  0  0  0  0  0
   17.8577  133.0722    2.2928 Cl  0  0  0  0  0  0  0  0  0  0  0  0
   19.4327  133.6727    0.1272 C   0  0  0  0  0  0  0  0  0  0  0  0
   19.8013  133.6034   -1.2122 C   0  0  0  0  0  0  0  0  0  0  0  0
   18.3007  133.2595   -4.4326 C   0  0  0  0  0  0  0  0  0  0  0  0
   18.1106  132.7493   -5.7094 C   0  0  0  0  0  0  0  0  0  0  0  0
   17.0504  133.2549   -6.4498 C   0  0  0  0  0  0  0  0  0  0  0  0
   16.2098  134.2357   -5.9330 C   0  0  0  0  0  0  0  0  0  0  0  0
   16.4303  134.7225   -4.6521 C   0  0  0  0  0  0  0  0  0  0  0  0
   17.4835  134.2370   -3.8856 C   0  0  0  0  0  0  0  0  0  0  0  0
   15.5558  135.7519   -4.1160 C   0  0  0  0  0  0  0  0  0  0  0  0
   15.7527  136.2960   -2.7849 C   0  0  0  0  0  0  0  0  0  0  0  0
   15.1158  135.6986   -1.7023 C   0  0  0  0  0  0  0  0  0  0  0  0
   15.3100  136.2265   -0.4298 C   0  0  0  0  0  0  0  0  0  0  0  0
   16.1268  137.3348   -0.2328 C   0  0  0  0  0  0  0  0  0  0  0  0
   16.7537  137.9159   -1.3302 C   0  0  0  0  0  0  0  0  0  0  0  0
   17.8022  139.3356   -1.0994 Cl  0  0  0  0  0  0  0  0  0  0  0  0
   16.5735  137.4053   -2.6115 C   0  0  0  0  0  0  0  0  0  0  0  0
   14.5442  136.2465   -4.8060 C   0  0  0  0  0  0  0  0  0  0  0  0
   14.2958  135.7470   -6.1447 C   0  0  0  0  0  0  0  0  0  0  0  0
   13.3604  136.2035   -6.7823 O   0  0  0  0  0  0  0  0  0  0  0  0
   15.1367  134.7556   -6.6681 N   0  0  0  0  0  0  0  0  0  0  0  0
   14.8433  134.2862   -8.0327 C   0  0  0  0  0  0  0  0  0  0  0  0
   18.8499  135.2830   -4.2388 H   0  0  0  0  0  0  0  0  0  0  0  0
   19.7581  136.5386   -3.7237 H   0  0  0  0  0  0  0  0  0  0  0  0
   19.7513  136.1303   -5.3048 H   0  0  0  0  0  0  0  0  0  0  0  0
   22.5212  136.1043   -4.4652 H   0  0  0  0  0  0  0  0  0  0  0  0
   22.2857  132.1632   -3.4441 H   0  0  0  0  0  0  0  0  0  0  0  0
   20.3602  131.2823   -4.6859 H   0  0  0  0  0  0  0  0  0  0  0  0
   20.0396  130.8320   -3.1493 H   0  0  0  0  0  0  0  0  0  0  0  0
   18.8332  130.9041   -4.2475 H   0  0  0  0  0  0  0  0  0  0  0  0
   17.3933  131.5807   -2.2757 H   0  0  0  0  0  0  0  0  0  0  0  0
   16.7597  131.7006    0.0332 H   0  0  0  0  0  0  0  0  0  0  0  0
   19.9687  134.2241    0.7664 H   0  0  0  0  0  0  0  0  0  0  0  0
   20.6018  134.1036   -1.5424 H   0  0  0  0  0  0  0  0  0  0  0  0
   18.7143  132.0444   -6.0819 H   0  0  0  0  0  0  0  0  0  0  0  0
   16.8878  132.9071   -7.3732 H   0  0  0  0  0  0  0  0  0  0  0  0
   17.6477  134.5842   -2.9623 H   0  0  0  0  0  0  0  0  0  0  0  0
   14.5271  134.9015   -1.8366 H   0  0  0  0  0  0  0  0  0  0  0  0
   14.8558  135.8032    0.3542 H   0  0  0  0  0  0  0  0  0  0  0  0
   16.2616  137.7087    0.6849 H   0  0  0  0  0  0  0  0  0  0  0  0
   17.0269  137.8292   -3.3956 H   0  0  0  0  0  0  0  0  0  0  0  0
   13.9584  136.9545   -4.4115 H   0  0  0  0  0  0  0  0  0  0  0  0
   15.5083  133.5869   -8.2949 H   0  0  0  0  0  0  0  0  0  0  0  0
   13.9224  133.8977   -8.0608 H   0  0  0  0  0  0  0  0  0  0  0  0
   14.9001  135.0554   -8.6692 H   0  0  0  0  0  0  0  0  0  0  0  0
  1  2  1  0  0  0  0
  2  3  1  0  0  0  0
  3  4  2  0  0  0  0
  4  5  1  0  0  0  0
  5  6  2  0  0  0  0
  6  7  1  0  0  0  0
  7  8  1  0  0  0  0
  7  9  1  0  0  0  0
  9 10  2  0  0  0  0
 10 11  1  0  0  0  0
 11 12  2  0  0  0  0
 12 13  1  0  0  0  0
 12 14  1  0  0  0  0
 14 15  2  0  0  0  0
  7 16  1  0  0  0  0
 16 17  2  0  0  0  0
 17 18  1  0  0  0  0
 18 19  2  0  0  0  0
 19 20  1  0  0  0  0
 20 21  2  0  0  0  0
 20 22  1  0  0  0  0
 22 23  1  0  0  0  0
 23 24  2  0  0  0  0
 24 25  1  0  0  0  0
 25 26  2  0  0  0  0
 26 27  1  0  0  0  0
 27 28  1  0  0  0  0
 27 29  2  0  0  0  0
 22 30  2  0  0  0  0
 30 31  1  0  0  0  0
 31 32  2  0  0  0  0
 31 33  1  0  0  0  0
 33 34  1  0  0  0  0
  6  2  1  0  0  0  0
 15  9  1  0  0  0  0
 21 16  1  0  0  0  0
 29 23  1  0  0  0  0
 33 19  1  0  0  0  0
  1 35  1  0  0  0  0
  1 36  1  0  0  0  0
  1 37  1  0  0  0  0
  3 38  1  0  0  0  0
  5 39  1  0  0  0  0
  8 40  1  0  0  0  0
  8 41  1  0  0  0  0
  8 42  1  0  0  0  0
 10 43  1  0  0  0  0
 11 44  1  0  0  0  0
 14 45  1  0  0  0  0
 15 46  1  0  0  0  0
 17 47  1  0  0  0  0
 18 48  1  0  0  0  0
 21 49  1  0  0  0  0
 24 50  1  0  0  0  0
 25 51  1  0  0  0  0
 26 52  1  0  0  0  0
 29 53  1  0  0  0  0
 30 54  1  0  0  0  0
 34 55  1  0  0  0  0
 34 56  1  0  0  0  0
 34 57  1  0  0  0  0
M  CHG  1   8   1
M  END
>  <docking-score>
-19.32

$$$$
1SA4_JAN_2
foFlexX   03192112203D 1   1.00000     0.00000     0
FlexX 4.5.0 fol007
 57 61  0  0  0  0            999 V2000
   20.1016  135.5130   -1.9736 C   0  0  0  0  0  0  0  0  0  0  0  0
   21.0118  134.7367   -2.8285 N   0  0  0  0  0  0  0  0  0  0  0  0
   22.1708  135.2030   -3.3770 C   0  0  0  0  0  0  0  0  0  0  0  0
   22.7079  134.2245   -4.0719 N   0  0  0  0  0  0  0  0  0  0  0  0
   21.9043  133.1234   -3.9788 C   0  0  0  0  0  0  0  0  0  0  0  0
   20.8318  133.4384   -3.1965 C   0  0  0  0  0  0  0  0  0  0  0  0
   19.6810  132.5226   -2.8134 C   0  0  1  0  0  0  0  0  0  0  0  0
   19.8881  131.1933   -3.4412 N   0  3  0  0  0  0  0  0  0  0  0  0
   19.6583  132.3692   -1.2725 C   0  0  0  0  0  0  0  0  0  0  0  0
   18.5095  132.7205   -0.5702 C   0  0  0  0  0  0  0  0  0  0  0  0
   18.4726  132.5878    0.8140 C   0  0  0  0  0  0  0  0  0  0  0  0
   19.5938  132.1031    1.4784 C   0  0  0  0  0  0  0  0  0  0  0  0
   19.5628  131.9275    3.2496 Cl  0  0  0  0  0  0  0  0  0  0  0  0
   20.7425  131.7513    0.7782 C   0  0  0  0  0  0  0  0  0  0  0  0
   20.7783  131.8843   -0.6059 C   0  0  0  0  0  0  0  0  0  0  0  0
   18.3187  133.0766   -3.2897 C   0  0  0  0  0  0  0  0  0  0  0  0
   17.1583  132.3594   -3.0326 C   0  0  0  0  0  0  0  0  0  0  0  0
   15.9596  132.8989   -3.4799 C   0  0  0  0  0  0  0  0  0  0  0  0
   15.9214  134.1119   -4.1602 C   0  0  0  0  0  0  0  0  0  0  0  0
   17.1019  134.8014   -4.3995 C   0  0  0  0  0  0  0  0  0  0  0  0
   18.3183  134.2877   -3.9648 C   0  0  0  0  0  0  0  0  0  0  0  0
   17.0615  136.0649   -5.1162 C   0  0  0  0  0  0  0  0  0  0  0  0
   18.2710  136.8168   -5.3958 C   0  0  0  0  0  0  0  0  0  0  0  0
   18.6211  137.0804   -6.7158 C   0  0  0  0  0  0  0  0  0  0  0  0
   19.7822  137.8017   -6.9750 C   0  0  0  0  0  0  0  0  0  0  0  0
   20.5876  138.2568   -5.9365 C   0  0  0  0  0  0  0  0  0  0  0  0
   20.2179  137.9815   -4.6240 C   0  0  0  0  0  0  0  0  0  0  0  0
   21.2358  138.5541   -3.2808 Cl  0  0  0  0  0  0  0  0  0  0  0  0
   19.0617  137.2615   -4.3415 C   0  0  0  0  0  0  0  0  0  0  0  0
   15.9315  136.5923   -5.5513 C   0  0  0  0  0  0  0  0  0  0  0  0
   14.6875  135.8882   -5.3068 C   0  0  0  0  0  0  0  0  0  0  0  0
   13.6430  136.3758   -5.7081 O   0  0  0  0  0  0  0  0  0  0  0  0
   14.7200  134.6682   -4.6177 N   0  0  0  0  0  0  0  0  0  0  0  0
   13.4300  133.9924   -4.3994 C   0  0  0  0  0  0  0  0  0  0  0  0
   19.3281  134.9398   -1.7033 H   0  0  0  0  0  0  0  0  0  0  0  0
   20.5910  135.8191   -1.1571 H   0  0  0  0  0  0  0  0  0  0  0  0
   19.7665  136.3081   -2.4791 H   0  0  0  0  0  0  0  0  0  0  0  0
   22.5448  136.1241   -3.2696 H   0  0  0  0  0  0  0  0  0  0  0  0
   22.0734  132.2375   -4.4106 H   0  0  0  0  0  0  0  0  0  0  0  0
   20.3590  131.3075   -4.3159 H   0  0  0  0  0  0  0  0  0  0  0  0
   20.4426  130.6218   -2.8363 H   0  0  0  0  0  0  0  0  0  0  0  0
   19.0022  130.7553   -3.5941 H   0  0  0  0  0  0  0  0  0  0  0  0
   17.7105  133.0684   -1.0606 H   0  0  0  0  0  0  0  0  0  0  0  0
   17.6501  132.8379    1.3248 H   0  0  0  0  0  0  0  0  0  0  0  0
   21.5414  131.4033    1.2688 H   0  0  0  0  0  0  0  0  0  0  0  0
   21.6009  131.6338   -1.1163 H   0  0  0  0  0  0  0  0  0  0  0  0
   17.1847  131.4874   -2.5438 H   0  0  0  0  0  0  0  0  0  0  0  0
   15.1066  132.4056   -3.3096 H   0  0  0  0  0  0  0  0  0  0  0  0
   19.1722  134.7797   -4.1347 H   0  0  0  0  0  0  0  0  0  0  0  0
   18.0466  136.7562   -7.4675 H   0  0  0  0  0  0  0  0  0  0  0  0
   20.0413  137.9956   -7.9212 H   0  0  0  0  0  0  0  0  0  0  0  0
   21.4208  138.7746   -6.1305 H   0  0  0  0  0  0  0  0  0  0  0  0
   18.8031  137.0668   -3.3954 H   0  0  0  0  0  0  0  0  0  0  0  0
   15.9337  137.4638   -6.0418 H   0  0  0  0  0  0  0  0  0  0  0  0
   13.5814  133.1371   -3.9040 H   0  0  0  0  0  0  0  0  0  0  0  0
   12.8292  134.5859   -3.8638 H   0  0  0  0  0  0  0  0  0  0  0  0
   13.0033  133.7954   -5.2820 H   0  0  0  0  0  0  0  0  0  0  0  0
  1  2  1  0  0  0  0
  2  3  1  0  0  0  0
  3  4  2  0  0  0  0
  4  5  1  0  0  0  0
  5  6  2  0  0  0  0
  6  7  1  0  0  0  0
  7  8  1  0  0  0  0
  7  9  1  0  0  0  0
  9 10  2  0  0  0  0
 10 11  1  0  0  0  0
 11 12  2  0  0  0  0
 12 13  1  0  0  0  0
 12 14  1  0  0  0  0
 14 15  2  0  0  0  0
  7 16  1  0  0  0  0
 16 17  2  0  0  0  0
 17 18  1  0  0  0  0
 18 19  2  0  0  0  0
 19 20  1  0  0  0  0
 20 21  2  0  0  0  0
 20 22  1  0  0  0  0
 22 23  1  0  0  0  0
 23 24  2  0  0  0  0
 24 25  1  0  0  0  0
 25 26  2  0  0  0  0
 26 27  1  0  0  0  0
 27 28  1  0  0  0  0
 27 29  2  0  0  0  0
 22 30  2  0  0  0  0
 30 31  1  0  0  0  0
 31 32  2  0  0  0  0
 31 33  1  0  0  0  0
 33 34  1  0  0  0  0
  6  2  1  0  0  0  0
 15  9  1  0  0  0  0
 21 16  1  0  0  0  0
 29 23  1  0  0  0  0
 33 19  1  0  0  0  0
  1 35  1  0  0  0  0
  1 36  1  0  0  0  0
  1 37  1  0  0  0  0
  3 38  1  0  0  0  0
  5 39  1  0  0  0  0
  8 40  1  0  0  0  0
  8 41  1  0  0  0  0
  8 42  1  0  0  0  0
 10 43  1  0  0  0  0
 11 44  1  0  0  0  0
 14 45  1  0  0  0  0
 15 46  1  0  0  0  0
 17 47  1  0  0  0  0
 18 48  1  0  0  0  0
 21 49  1  0  0  0  0
 24 50  1  0  0  0  0
 25 51  1  0  0  0  0
 26 52  1  0  0  0  0
 29 53  1  0  0  0  0
 30 54  1  0  0  0  0
 34 55  1  0  0  0  0
 34 56  1  0  0  0  0
 34 57  1  0  0  0  0
M  CHG  1   8   1
M  END
>  <docking-score>
-17.15

$$$$
1SA4_JAN_3
foFlexX   03192112203D 1   1.00000     0.00000     0
FlexX 4.5.0 fol007
 57 61  0  0  0  0            999 V2000
   20.1019  135.5146   -1.9770 C   0  0  0  0  0  0  0  0  0  0  0  0
   21.0119  134.7374   -2.8315 N   0  0  0  0  0  0  0  0  0  0  0  0
   22.1707  135.2031   -3.3807 C   0  0  0  0  0  0  0  0  0  0  0  0
   22.7076  134.2239   -4.0749 N   0  0  0  0  0  0  0  0  0  0  0  0
   21.9039  133.1231   -3.9806 C   0  0  0  0  0  0  0  0  0  0  0  0
   20.8317  133.4388   -3.1982 C   0  0  0  0  0  0  0  0  0  0  0  0
   19.6809  132.5234   -2.8141 C   0  0  1  0  0  0  0  0  0  0  0  0
   19.8877  131.1936   -3.4407 N   0  3  0  0  0  0  0  0  0  0  0  0
   19.6587  132.3714   -1.2730 C   0  0  0  0  0  0  0  0  0  0  0  0
   18.5101  132.7234   -0.5706 C   0  0  0  0  0  0  0  0  0  0  0  0
   18.4735  132.5920    0.8136 C   0  0  0  0  0  0  0  0  0  0  0  0
   19.5949  132.1077    1.4782 C   0  0  0  0  0  0  0  0  0  0  0  0
   19.5644  131.9337    3.2496 Cl  0  0  0  0  0  0  0  0  0  0  0  0
   20.7434  131.7552    0.7780 C   0  0  0  0  0  0  0  0  0  0  0  0
   20.7788  131.8870   -0.6063 C   0  0  0  0  0  0  0  0  0  0  0  0
   18.3185  133.0771   -3.2904 C   0  0  0  0  0  0  0  0  0  0  0  0
   17.1582  132.3602   -3.0324 C   0  0  0  0  0  0  0  0  0  0  0  0
   15.9594  132.8994   -3.4798 C   0  0  0  0  0  0  0  0  0  0  0  0
   15.9211  134.1118   -4.1612 C   0  0  0  0  0  0  0  0  0  0  0  0
   17.1015  134.8010   -4.4015 C   0  0  0  0  0  0  0  0  0  0  0  0
   18.3180  134.2876   -3.9666 C   0  0  0  0  0  0  0  0  0  0  0  0
   17.0610  136.0639   -5.1193 C   0  0  0  0  0  0  0  0  0  0  0  0
   18.2705  136.8154   -5.3998 C   0  0  0  0  0  0  0  0  0  0  0  0
   19.0584  137.2599   -4.3433 C   0  0  0  0  0  0  0  0  0  0  0  0
   20.2162  137.9797   -4.6211 C   0  0  0  0  0  0  0  0  0  0  0  0
   20.5888  138.2559   -5.9323 C   0  0  0  0  0  0  0  0  0  0  0  0
   19.7855  137.8014   -6.9731 C   0  0  0  0  0  0  0  0  0  0  0  0
   20.2443  138.1454   -8.6581 Cl  0  0  0  0  0  0  0  0  0  0  0  0
   18.6233  137.0805   -6.7188 C   0  0  0  0  0  0  0  0  0  0  0  0
   15.9309  136.5910   -5.5545 C   0  0  0  0  0  0  0  0  0  0  0  0
   14.6869  135.8871   -5.3090 C   0  0  0  0  0  0  0  0  0  0  0  0
   13.6424  136.3745   -5.7105 O   0  0  0  0  0  0  0  0  0  0  0  0
   14.7196  134.6678   -4.6189 N   0  0  0  0  0  0  0  0  0  0  0  0
   13.4296  133.9923   -4.3995 C   0  0  0  0  0  0  0  0  0  0  0  0
   19.3285  134.9416   -1.7059 H   0  0  0  0  0  0  0  0  0  0  0  0
   20.5917  135.8214   -1.1609 H   0  0  0  0  0  0  0  0  0  0  0  0
   19.7668  136.3093   -2.4831 H   0  0  0  0  0  0  0  0  0  0  0  0
   22.5449  136.1244   -3.2743 H   0  0  0  0  0  0  0  0  0  0  0  0
   22.0729  132.2367   -4.4117 H   0  0  0  0  0  0  0  0  0  0  0  0
   20.3584  131.3070   -4.3157 H   0  0  0  0  0  0  0  0  0  0  0  0
   20.4423  130.6225   -2.8354 H   0  0  0  0  0  0  0  0  0  0  0  0
   19.0018  130.7554   -3.5930 H   0  0  0  0  0  0  0  0  0  0  0  0
   17.7109  133.0709   -1.0611 H   0  0  0  0  0  0  0  0  0  0  0  0
   17.6512  132.8426    1.3244 H   0  0  0  0  0  0  0  0  0  0  0  0
   21.5423  131.4076    1.2687 H   0  0  0  0  0  0  0  0  0  0  0  0
   21.6013  131.6360   -1.1167 H   0  0  0  0  0  0  0  0  0  0  0  0
   17.1846  131.4886   -2.5428 H   0  0  0  0  0  0  0  0  0  0  0  0
   15.1064  132.4063   -3.3089 H   0  0  0  0  0  0  0  0  0  0  0  0
   19.1719  134.7793   -4.1372 H   0  0  0  0  0  0  0  0  0  0  0  0
   18.7966  137.0649   -3.3981 H   0  0  0  0  0  0  0  0  0  0  0  0
   20.7885  138.3030   -3.8674 H   0  0  0  0  0  0  0  0  0  0  0  0
   21.4224  138.7739   -6.1242 H   0  0  0  0  0  0  0  0  0  0  0  0
   18.0506  136.7580   -7.4724 H   0  0  0  0  0  0  0  0  0  0  0  0
   15.9330  137.4620   -6.0457 H   0  0  0  0  0  0  0  0  0  0  0  0
   13.5811  133.1374   -3.9034 H   0  0  0  0  0  0  0  0  0  0  0  0
   12.8290  134.5863   -3.8643 H   0  0  0  0  0  0  0  0  0  0  0  0
   13.0026  133.7945   -5.2819 H   0  0  0  0  0  0  0  0  0  0  0  0
  1  2  1  0  0  0  0
  2  3  1  0  0  0  0
  3  4  2  0  0  0  0
  4  5  1  0  0  0  0
  5  6  2  0  0  0  0
  6  7  1  0  0  0  0
  7  8  1  0  0  0  0
  7  9  1  0  0  0  0
  9 10  2  0  0  0  0
 10 11  1  0  0  0  0
 11 12  2  0  0  0  0
 12 13  1  0  0  0  0
 12 14  1  0  0  0  0
 14 15  2  0  0  0  0
  7 16  1  0  0  0  0
 16 17  2  0  0  0  0
 17 18  1  0  0  0  0
 18 19  2  0  0  0  0
 19 20  1  0  0  0  0
 20 21  2  0  0  0  0
 20 22  1  0  0  0  0
 22 23  1  0  0  0  0
 23 24  2  0  0  0  0
 24 25  1  0  0  0  0
 25 26  2  0  0  0  0
 26 27  1  0  0  0  0
 27 28  1  0  0  0  0
 27 29  2  0  0  0  0
 22 30  2  0  0  0  0
 30 31  1  0  0  0  0
 31 32  2  0  0  0  0
 31 33  1  0  0  0  0
 33 34  1  0  0  0  0
  6  2  1  0  0  0  0
 15  9  1  0  0  0  0
 21 16  1  0  0  0  0
 29 23  1  0  0  0  0
 33 19  1  0  0  0  0
  1 35  1  0  0  0  0
  1 36  1  0  0  0  0
  1 37  1  0  0  0  0
  3 38  1  0  0  0  0
  5 39  1  0  0  0  0
  8 40  1  0  0  0  0
  8 41  1  0  0  0  0
  8 42  1  0  0  0  0
 10 43  1  0  0  0  0
 11 44  1  0  0  0  0
 14 45  1  0  0  0  0
 15 46  1  0  0  0  0
 17 47  1  0  0  0  0
 18 48  1  0  0  0  0
 21 49  1  0  0  0  0
 24 50  1  0  0  0  0
 25 51  1  0  0  0  0
 26 52  1  0  0  0  0
 29 53  1  0  0  0  0
 30 54  1  0  0  0  0
 34 55  1  0  0  0  0
 34 56  1  0  0  0  0
 34 57  1  0  0  0  0
M  CHG  1   8   1
M  END
>  <docking-score>
-16.92

$$$$
1MZC_BNE_1
foFlexX   03192112203D 1   1.00000     0.00000     0
FlexX 4.5.0 fol007
 69 72  0  0  0  0            999 V2000
   13.8226  136.3547   -5.5495 C   0  0  0  0  0  0  0  0  0  0  0  0
   13.6415  136.1513   -4.0360 C   0  0  0  0  0  0  0  0  0  0  0  0
   14.8569  135.6207   -3.2930 C   0  0  1  0  0  0  0  0  0  0  0  0
   14.8304  134.1016   -3.2718 C   0  0  0  0  0  0  0  0  0  0  0  0
   13.7144  133.4194   -3.7455 C   0  0  0  0  0  0  0  0  0  0  0  0
   13.7121  132.0286   -3.7163 C   0  0  0  0  0  0  0  0  0  0  0  0
   14.8029  131.3202   -3.2231 C   0  0  0  0  0  0  0  0  0  0  0  0
   15.9085  132.0222   -2.7542 C   0  0  0  0  0  0  0  0  0  0  0  0
   16.9715  131.3419   -2.2733 O   0  0  0  0  0  0  0  0  0  0  0  0
   18.3055  131.7787   -2.3240 C   0  0  0  0  0  0  0  0  0  0  0  0
   18.9977  131.9499   -1.1297 C   0  0  0  0  0  0  0  0  0  0  0  0
   20.3190  132.3825   -1.1721 C   0  0  0  0  0  0  0  0  0  0  0  0
   21.0850  132.5733    0.1271 C   0  0  2  0  0  0  0  0  0  0  0  0
   22.1287  133.6886   -0.1193 C   0  0  0  0  0  0  0  0  0  0  0  0
   21.8052  131.3503    0.5410 N   0  3  0  0  0  0  0  0  0  0  0  0
   20.1119  132.9666    1.2493 C   0  0  0  0  0  0  0  0  0  0  0  0
   19.9047  132.2736    2.4057 C   0  0  0  0  0  0  0  0  0  0  0  0
   18.9705  132.9634    3.1201 N   0  0  0  0  0  0  0  0  0  0  0  0
   18.6198  134.0302    2.4342 C   0  0  0  0  0  0  0  0  0  0  0  0
   19.3157  134.0682    1.2661 N   0  0  0  0  0  0  0  0  0  0  0  0
   19.2204  135.0954    0.2182 C   0  0  0  0  0  0  0  0  0  0  0  0
   20.9489  132.6432   -2.3848 C   0  0  0  0  0  0  0  0  0  0  0  0
   20.2470  132.4684   -3.5728 C   0  0  0  0  0  0  0  0  0  0  0  0
   18.9251  132.0360   -3.5425 C   0  0  0  0  0  0  0  0  0  0  0  0
   18.1579  131.8449   -4.8407 C   0  0  0  0  0  0  0  0  0  0  0  0
   17.5736  131.6993   -5.8289 N   0  0  0  0  0  0  0  0  0  0  0  0
   15.9320  133.4128   -2.7743 C   0  0  0  0  0  0  0  0  0  0  0  0
   16.0872  135.9654   -4.1328 C   0  0  0  0  0  0  0  0  0  0  0  0
   16.5130  137.4299   -4.2322 C   0  0  0  0  0  0  0  0  0  0  0  0
   17.1180  138.0447   -2.9668 C   0  0  0  0  0  0  0  0  0  0  0  0
   16.1772  138.3455   -1.7903 C   0  0  0  0  0  0  0  0  0  0  0  0
   15.3305  137.2668   -1.2145 N   0  0  0  0  0  0  0  0  0  0  0  0
   15.0346  137.4322    0.2163 C   0  0  0  0  0  0  0  0  0  0  0  0
   14.7716  136.1147   -1.8371 C   0  0  0  0  0  0  0  0  0  0  0  0
   14.1136  135.3982   -1.0969 O   0  0  0  0  0  0  0  0  0  0  0  0
   14.0540  135.4813   -5.9779 H   0  0  0  0  0  0  0  0  0  0  0  0
   12.9722  136.7040   -5.9429 H   0  0  0  0  0  0  0  0  0  0  0  0
   14.5593  137.0112   -5.7118 H   0  0  0  0  0  0  0  0  0  0  0  0
   12.8915  135.5039   -3.9005 H   0  0  0  0  0  0  0  0  0  0  0  0
   13.3968  137.0338   -3.6344 H   0  0  0  0  0  0  0  0  0  0  0  0
   12.9260  133.9211   -4.1015 H   0  0  0  0  0  0  0  0  0  0  0  0
   12.9140  131.5304   -4.0550 H   0  0  0  0  0  0  0  0  0  0  0  0
   14.7924  130.3204   -3.2060 H   0  0  0  0  0  0  0  0  0  0  0  0
   18.5521  131.7648   -0.2538 H   0  0  0  0  0  0  0  0  0  0  0  0
   22.7600  133.4011   -0.8396 H   0  0  0  0  0  0  0  0  0  0  0  0
   21.6610  134.5264   -0.4008 H   0  0  0  0  0  0  0  0  0  0  0  0
   22.6396  133.8590    0.7233 H   0  0  0  0  0  0  0  0  0  0  0  0
   21.6430  130.6253   -0.1284 H   0  0  0  0  0  0  0  0  0  0  0  0
   22.7852  131.5422    0.5936 H   0  0  0  0  0  0  0  0  0  0  0  0
   21.4746  131.0561    1.4377 H   0  0  0  0  0  0  0  0  0  0  0  0
   20.3526  131.4219    2.6776 H   0  0  0  0  0  0  0  0  0  0  0  0
   17.9456  134.7085    2.7266 H   0  0  0  0  0  0  0  0  0  0  0  0
   19.8407  134.8653   -0.5316 H   0  0  0  0  0  0  0  0  0  0  0  0
   18.2821  135.1348   -0.1256 H   0  0  0  0  0  0  0  0  0  0  0  0
   19.4734  135.9847    0.5992 H   0  0  0  0  0  0  0  0  0  0  0  0
   21.8993  132.9539   -2.4023 H   0  0  0  0  0  0  0  0  0  0  0  0
   20.6925  132.6536   -4.4487 H   0  0  0  0  0  0  0  0  0  0  0  0
   16.7302  133.9108   -2.4356 H   0  0  0  0  0  0  0  0  0  0  0  0
   15.9089  135.6456   -5.0633 H   0  0  0  0  0  0  0  0  0  0  0  0
   16.8588  135.4587   -3.7483 H   0  0  0  0  0  0  0  0  0  0  0  0
   15.7053  137.9667   -4.4763 H   0  0  0  0  0  0  0  0  0  0  0  0
   17.1934  137.5011   -4.9616 H   0  0  0  0  0  0  0  0  0  0  0  0
   17.8174  137.4122   -2.6341 H   0  0  0  0  0  0  0  0  0  0  0  0
   17.5480  138.9077   -3.2319 H   0  0  0  0  0  0  0  0  0  0  0  0
   16.7487  138.6911   -1.0460 H   0  0  0  0  0  0  0  0  0  0  0  0
   15.5558  139.0669   -2.0960 H   0  0  0  0  0  0  0  0  0  0  0  0
   14.4637  136.6729    0.5286 H   0  0  0  0  0  0  0  0  0  0  0  0
   15.8897  137.4414    0.7346 H   0  0  0  0  0  0  0  0  0  0  0  0
   14.5492  138.2948    0.3588 H   0  0  0  0  0  0  0  0  0  0  0  0
  1  2  1  0  0  0  0
  2  3  1  0  0  0  0
  3  4  1  0  0  0  0
  4  5  2  0  0  0  0
  5  6  1  0  0  0  0
  6  7  2  0  0  0  0
  7  8  1  0  0  0  0
  8  9  1  0  0  0  0
  9 10  1  0  0  0  0
 10 11  2  0  0  0  0
 11 12  1  0  0  0  0
 12 13  1  0  0  0  0
 13 14  1  0  0  0  0
 13 15  1  0  0  0  0
 13 16  1  0  0  0  0
 16 17  2  0  0  0  0
 17 18  1  0  0  0  0
 18 19  2  0  0  0  0
 19 20  1  0  0  0  0
 20 21  1  0  0  0  0
 12 22  2  0  0  0  0
 22 23  1  0  0  0  0
 23 24  2  0  0  0  0
 24 25  1  0  0  0  0
 25 26  3  0  0  0  0
  8 27  2  0  0  0  0
  3 28  1  0  0  0  0
 28 29  1  0  0  0  0
 29 30  1  0  0  0  0
 30 31  1  0  0  0  0
 31 32  1  0  0  0  0
 32 33  1  0  0  0  0
 32 34  1  0  0  0  0
 34 35  2  0  0  0  0
 34  3  1  0  0  0  0
 27  4  1  0  0  0  0
 24 10  1  0  0  0  0
 20 16  1  0  0  0  0
  1 36  1  0  0  0  0
  1 37  1  0  0  0  0
  1 38  1  0  0  0  0
  2 39  1  0  0  0  0
  2 40  1  0  0  0  0
  5 41  1  0  0  0  0
  6 42  1  0  0  0  0
  7 43  1  0  0  0  0
 11 44  1  0  0  0  0
 14 45  1  0  0  0  0
 14 46  1  0  0  0  0
 14 47  1  0  0  0  0
 15 48  1  0  0  0  0
 15 49  1  0  0  0  0
 15 50  1  0  0  0  0
 17 51  1  0  0  0  0
 19 52  1  0  0  0  0
 21 53  1  0  0  0  0
 21 54  1  0  0  0  0
 21 55  1  0  0  0  0
 22 56  1  0  0  0  0
 23 57  1  0  0  0  0
 27 58  1  0  0  0  0
 28 59  1  0  0  0  0
 28 60  1  0  0  0  0
 29 61  1  0  0  0  0
 29 62  1  0  0  0  0
 30 63  1  0  0  0  0
 30 64  1  0  0  0  0
 31 65  1  0  0  0  0
 31 66  1  0  0  0  0
 33 67  1  0  0  0  0
 33 68  1  0  0  0  0
 33 69  1  0  0  0  0
M  CHG  1  15   1
M  END
>  <docking-score>
-30.04

$$$$
1MZC_BNE_2
foFlexX   03192112203D 1   1.00000     0.00000     0
FlexX 4.5.0 fol007
 69 72  0  0  0  0            999 V2000
   13.6682  136.2889   -5.8404 C   0  0  0  0  0  0  0  0  0  0  0  0
   13.5105  136.2567   -4.3111 C   0  0  0  0  0  0  0  0  0  0  0  0
   14.7394  135.8175   -3.5316 C   0  0  1  0  0  0  0  0  0  0  0  0
   14.7213  134.3104   -3.3390 C   0  0  0  0  0  0  0  0  0  0  0  0
   13.6020  133.5752   -3.7159 C   0  0  0  0  0  0  0  0  0  0  0  0
   13.6075  132.1965   -3.5302 C   0  0  0  0  0  0  0  0  0  0  0  0
   14.7091  131.5522   -2.9771 C   0  0  0  0  0  0  0  0  0  0  0  0
   15.8178  132.3065   -2.6070 C   0  0  0  0  0  0  0  0  0  0  0  0
   16.8913  131.6885   -2.0688 O   0  0  0  0  0  0  0  0  0  0  0  0
   18.2221  132.1216   -2.1886 C   0  0  0  0  0  0  0  0  0  0  0  0
   18.9309  132.4288   -1.0319 C   0  0  0  0  0  0  0  0  0  0  0  0
   20.2491  132.8586   -1.1429 C   0  0  0  0  0  0  0  0  0  0  0  0
   21.0331  133.1972    0.1149 C   0  0  2  0  0  0  0  0  0  0  0  0
   21.4686  134.6771   -0.0048 C   0  0  0  0  0  0  0  0  0  0  0  0
   22.2487  132.3686    0.2609 N   0  3  0  0  0  0  0  0  0  0  0  0
   20.1471  132.9813    1.3515 C   0  0  0  0  0  0  0  0  0  0  0  0
   19.7960  133.9373    2.2588 C   0  0  0  0  0  0  0  0  0  0  0  0
   19.0064  133.3302    3.1899 N   0  0  0  0  0  0  0  0  0  0  0  0
   18.8789  132.0603    2.8697 C   0  0  0  0  0  0  0  0  0  0  0  0
   19.5709  131.8086    1.7261 N   0  0  0  0  0  0  0  0  0  0  0  0
   19.6835  130.5170    1.0322 C   0  0  0  0  0  0  0  0  0  0  0  0
   20.8597  132.9832   -2.3866 C   0  0  0  0  0  0  0  0  0  0  0  0
   20.1413  132.6731   -3.5366 C   0  0  0  0  0  0  0  0  0  0  0  0
   18.8224  132.2421   -3.4377 C   0  0  0  0  0  0  0  0  0  0  0  0
   18.0372  131.9032   -4.6943 C   0  0  0  0  0  0  0  0  0  0  0  0
   17.4392  131.6452   -5.6508 N   0  0  0  0  0  0  0  0  0  0  0  0
   15.8336  133.6860   -2.7839 C   0  0  0  0  0  0  0  0  0  0  0  0
   15.9554  136.0698   -4.4234 C   0  0  0  0  0  0  0  0  0  0  0  0
   16.3719  137.5153   -4.6937 C   0  0  0  0  0  0  0  0  0  0  0  0
   16.9923  138.2709   -3.5149 C   0  0  0  0  0  0  0  0  0  0  0  0
   16.0673  138.6990   -2.3656 C   0  0  0  0  0  0  0  0  0  0  0  0
   15.2348  137.6890   -1.6591 N   0  0  0  0  0  0  0  0  0  0  0  0
   14.9591  138.0136   -0.2517 C   0  0  0  0  0  0  0  0  0  0  0  0
   14.6730  136.4721   -2.1394 C   0  0  0  0  0  0  0  0  0  0  0  0
   14.0297  135.8412   -1.3134 O   0  0  0  0  0  0  0  0  0  0  0  0
   13.8979  135.3736   -6.1712 H   0  0  0  0  0  0  0  0  0  0  0  0
   12.8103  136.5886   -6.2577 H   0  0  0  0  0  0  0  0  0  0  0  0
   14.3989  136.9255   -6.0868 H   0  0  0  0  0  0  0  0  0  0  0  0
   12.7660  135.6260   -4.0921 H   0  0  0  0  0  0  0  0  0  0  0  0
   13.2670  137.1779   -4.0077 H   0  0  0  0  0  0  0  0  0  0  0  0
   12.8059  134.0308   -4.1141 H   0  0  0  0  0  0  0  0  0  0  0  0
   12.8071  131.6605   -3.7985 H   0  0  0  0  0  0  0  0  0  0  0  0
   14.7042  130.5606   -2.8473 H   0  0  0  0  0  0  0  0  0  0  0  0
   18.4992  132.3419   -0.1341 H   0  0  0  0  0  0  0  0  0  0  0  0
   22.0580  134.7874   -0.8051 H   0  0  0  0  0  0  0  0  0  0  0  0
   20.6592  135.2557   -0.1047 H   0  0  0  0  0  0  0  0  0  0  0  0
   21.9701  134.9445    0.8179 H   0  0  0  0  0  0  0  0  0  0  0  0
   22.5916  132.1173   -0.6443 H   0  0  0  0  0  0  0  0  0  0  0  0
   22.9493  132.8878    0.7504 H   0  0  0  0  0  0  0  0  0  0  0  0
   22.0276  131.5401    0.7754 H   0  0  0  0  0  0  0  0  0  0  0  0
   20.0663  134.9000    2.2440 H   0  0  0  0  0  0  0  0  0  0  0  0
   18.3541  131.3845    3.3873 H   0  0  0  0  0  0  0  0  0  0  0  0
   20.2600  130.6230    0.2220 H   0  0  0  0  0  0  0  0  0  0  0  0
   20.0932  129.8430    1.6469 H   0  0  0  0  0  0  0  0  0  0  0  0
   18.7740  130.2066    0.7558 H   0  0  0  0  0  0  0  0  0  0  0  0
   21.8081  133.2933   -2.4534 H   0  0  0  0  0  0  0  0  0  0  0  0
   20.5730  132.7601   -4.4344 H   0  0  0  0  0  0  0  0  0  0  0  0
   16.6341  134.2219   -2.5157 H   0  0  0  0  0  0  0  0  0  0  0  0
   15.7651  135.6465   -5.3092 H   0  0  0  0  0  0  0  0  0  0  0  0
   16.7353  135.6125   -3.9961 H   0  0  0  0  0  0  0  0  0  0  0  0
   15.5580  138.0183   -4.9843 H   0  0  0  0  0  0  0  0  0  0  0  0
   17.0412  137.5063   -5.4367 H   0  0  0  0  0  0  0  0  0  0  0  0
   17.6998  137.6824   -3.1237 H   0  0  0  0  0  0  0  0  0  0  0  0
   17.4138  139.1001   -3.8819 H   0  0  0  0  0  0  0  0  0  0  0  0
   16.6478  139.1283   -1.6737 H   0  0  0  0  0  0  0  0  0  0  0  0
   15.4377  139.3792   -2.7411 H   0  0  0  0  0  0  0  0  0  0  0  0
   14.3969  137.2923    0.1528 H   0  0  0  0  0  0  0  0  0  0  0  0
   15.8218  138.0842    0.2492 H   0  0  0  0  0  0  0  0  0  0  0  0
   14.4713  138.8850   -0.1999 H   0  0  0  0  0  0  0  0  0  0  0  0
  1  2  1  0  0  0  0
  2  3  1  0  0  0  0
  3  4  1  0  0  0  0
  4  5  2  0  0  0  0
  5  6  1  0  0  0  0
  6  7  2  0  0  0  0
  7  8  1  0  0  0  0
  8  9  1  0  0  0  0
  9 10  1  0  0  0  0
 10 11  2  0  0  0  0
 11 12  1  0  0  0  0
 12 13  1  0  0  0  0
 13 14  1  0  0  0  0
 13 15  1  0  0  0  0
 13 16  1  0  0  0  0
 16 17  2  0  0  0  0
 17 18  1  0  0  0  0
 18 19  2  0  0  0  0
 19 20  1  0  0  0  0
 20 21  1  0  0  0  0
 12 22  2  0  0  0  0
 22 23  1  0  0  0  0
 23 24  2  0  0  0  0
 24 25  1  0  0  0  0
 25 26  3  0  0  0  0
  8 27  2  0  0  0  0
  3 28  1  0  0  0  0
 28 29  1  0  0  0  0
 29 30  1  0  0  0  0
 30 31  1  0  0  0  0
 31 32  1  0  0  0  0
 32 33  1  0  0  0  0
 32 34  1  0  0  0  0
 34 35  2  0  0  0  0
 34  3  1  0  0  0  0
 27  4  1  0  0  0  0
 24 10  1  0  0  0  0
 20 16  1  0  0  0  0
  1 36  1  0  0  0  0
  1 37  1  0  0  0  0
  1 38  1  0  0  0  0
  2 39  1  0  0  0  0
  2 40  1  0  0  0  0
  5 41  1  0  0  0  0
  6 42  1  0  0  0  0
  7 43  1  0  0  0  0
 11 44  1  0  0  0  0
 14 45  1  0  0  0  0
 14 46  1  0  0  0  0
 14 47  1  0  0  0  0
 15 48  1  0  0  0  0
 15 49  1  0  0  0  0
 15 50  1  0  0  0  0
 17 51  1  0  0  0  0
 19 52  1  0  0  0  0
 21 53  1  0  0  0  0
 21 54  1  0  0  0  0
 21 55  1  0  0  0  0
 22 56  1  0  0  0  0
 23 57  1  0  0  0  0
 27 58  1  0  0  0  0
 28 59  1  0  0  0  0
 28 60  1  0  0  0  0
 29 61  1  0  0  0  0
 29 62  1  0  0  0  0
 30 63  1  0  0  0  0
 30 64  1  0  0  0  0
 31 65  1  0  0  0  0
 31 66  1  0  0  0  0
 33 67  1  0  0  0  0
 33 68  1  0  0  0  0
 33 69  1  0  0  0  0
M  CHG  1  15   1
M  END
>  <docking-score>
-26.87

$$$$
1MZC_BNE_3
foFlexX   03192112203D 1   1.00000     0.00000     0
FlexX 4.5.0 fol007
 69 72  0  0  0  0            999 V2000
   18.9219  136.4066   -7.0956 C   0  0  0  0  0  0  0  0  0  0  0  0
   17.5506  135.8071   -6.7423 C   0  0  0  0  0  0  0  0  0  0  0  0
   16.3431  136.6100   -7.1999 C   0  0  1  0  0  0  0  0  0  0  0  0
   15.2330  136.3401   -6.1981 C   0  0  0  0  0  0  0  0  0  0  0  0
   14.4861  137.3966   -5.6872 C   0  0  0  0  0  0  0  0  0  0  0  0
   13.4747  137.1261   -4.7711 C   0  0  0  0  0  0  0  0  0  0  0  0
   13.2056  135.8234   -4.3646 C   0  0  0  0  0  0  0  0  0  0  0  0
   13.9647  134.7817   -4.8878 C   0  0  0  0  0  0  0  0  0  0  0  0
   13.7001  133.4649   -4.4828 O   0  0  0  0  0  0  0  0  0  0  0  0
   14.5800  132.6455   -3.8691 C   0  0  0  0  0  0  0  0  0  0  0  0
   15.9355  132.7968   -4.1423 C   0  0  0  0  0  0  0  0  0  0  0  0
   16.8480  131.9559   -3.5138 C   0  0  0  0  0  0  0  0  0  0  0  0
   18.3319  132.1122   -3.8051 C   0  0  2  0  0  0  0  0  0  0  0  0
   18.4758  133.2611   -4.8313 C   0  0  0  0  0  0  0  0  0  0  0  0
   18.9220  130.8909   -4.3933 N   0  3  0  0  0  0  0  0  0  0  0  0
   19.0836  132.4366   -2.5049 C   0  0  0  0  0  0  0  0  0  0  0  0
   18.7288  132.0255   -1.2537 C   0  0  0  0  0  0  0  0  0  0  0  0
   19.6589  132.5271   -0.3921 N   0  0  0  0  0  0  0  0  0  0  0  0
   20.5436  133.2147   -1.0819 C   0  0  0  0  0  0  0  0  0  0  0  0
   20.2206  133.1745   -2.4026 N   0  0  0  0  0  0  0  0  0  0  0  0
   20.9523  133.8126   -3.5071 C   0  0  0  0  0  0  0  0  0  0  0  0
   16.4229  130.9748   -2.6237 C   0  0  0  0  0  0  0  0  0  0  0  0
   15.0650  130.8327   -2.3582 C   0  0  0  0  0  0  0  0  0  0  0  0
   14.1434  131.6682   -2.9808 C   0  0  0  0  0  0  0  0  0  0  0  0
   12.7363  131.5211   -2.7056 C   0  0  0  0  0  0  0  0  0  0  0  0
   11.6066  131.4033   -2.4849 N   0  0  0  0  0  0  0  0  0  0  0  0
   14.9804  135.0297   -5.8050 C   0  0  0  0  0  0  0  0  0  0  0  0
   16.7756  138.0807   -7.1440 C   0  0  0  0  0  0  0  0  0  0  0  0
   15.7325  139.1848   -7.3517 C   0  0  0  0  0  0  0  0  0  0  0  0
   14.5346  138.9082   -8.2673 C   0  0  0  0  0  0  0  0  0  0  0  0
   14.7992  138.1944   -9.5994 C   0  0  0  0  0  0  0  0  0  0  0  0
   15.1987  136.7638   -9.5887 N   0  0  0  0  0  0  0  0  0  0  0  0
   14.8502  135.9977  -10.7950 C   0  0  0  0  0  0  0  0  0  0  0  0
   15.8735  136.0624   -8.5560 C   0  0  0  0  0  0  0  0  0  0  0  0
   16.1113  134.8851   -8.7722 O   0  0  0  0  0  0  0  0  0  0  0  0
   19.0094  137.3094   -6.6746 H   0  0  0  0  0  0  0  0  0  0  0  0
   19.6458  135.8076   -6.7533 H   0  0  0  0  0  0  0  0  0  0  0  0
   19.0022  136.4927   -8.0886 H   0  0  0  0  0  0  0  0  0  0  0  0
   17.5013  135.7177   -5.7475 H   0  0  0  0  0  0  0  0  0  0  0  0
   17.4941  134.9010   -7.1615 H   0  0  0  0  0  0  0  0  0  0  0  0
   14.6733  138.3361   -5.9741 H   0  0  0  0  0  0  0  0  0  0  0  0
   12.9329  137.8798   -4.3990 H   0  0  0  0  0  0  0  0  0  0  0  0
   12.4766  135.6383   -3.7056 H   0  0  0  0  0  0  0  0  0  0  0  0
   16.2492  133.4995   -4.7808 H   0  0  0  0  0  0  0  0  0  0  0  0
   17.9944  133.0180   -5.6735 H   0  0  0  0  0  0  0  0  0  0  0  0
   18.0819  134.0982   -4.4519 H   0  0  0  0  0  0  0  0  0  0  0  0
   19.4442  133.4095   -5.0319 H   0  0  0  0  0  0  0  0  0  0  0  0
   18.2258  130.4060   -4.9226 H   0  0  0  0  0  0  0  0  0  0  0  0
   19.6811  131.1432   -4.9933 H   0  0  0  0  0  0  0  0  0  0  0  0
   19.2581  130.2975   -3.6620 H   0  0  0  0  0  0  0  0  0  0  0  0
   17.9372  131.4634   -1.0139 H   0  0  0  0  0  0  0  0  0  0  0  0
   21.3319  133.6930   -0.6949 H   0  0  0  0  0  0  0  0  0  0  0  0
   20.4842  133.6234   -4.3703 H   0  0  0  0  0  0  0  0  0  0  0  0
   20.9876  134.8006   -3.3567 H   0  0  0  0  0  0  0  0  0  0  0  0
   21.8826  133.4477   -3.5454 H   0  0  0  0  0  0  0  0  0  0  0  0
   17.0887  130.3762   -2.1783 H   0  0  0  0  0  0  0  0  0  0  0  0
   14.7513  130.1299   -1.7197 H   0  0  0  0  0  0  0  0  0  0  0  0
   15.5221  134.2759   -6.1771 H   0  0  0  0  0  0  0  0  0  0  0  0
   17.4744  138.2050   -7.8484 H   0  0  0  0  0  0  0  0  0  0  0  0
   17.1811  138.2301   -6.2422 H   0  0  0  0  0  0  0  0  0  0  0  0
   16.2138  139.9761   -7.7288 H   0  0  0  0  0  0  0  0  0  0  0  0
   15.3661  139.4158   -6.4504 H   0  0  0  0  0  0  0  0  0  0  0  0
   13.8888  138.3456   -7.7510 H   0  0  0  0  0  0  0  0  0  0  0  0
   14.1127  139.7895   -8.4802 H   0  0  0  0  0  0  0  0  0  0  0  0
   13.9586  138.2589  -10.1373 H   0  0  0  0  0  0  0  0  0  0  0  0
   15.5296  138.6981  -10.0606 H   0  0  0  0  0  0  0  0  0  0  0  0
   15.1607  135.0528  -10.6910 H   0  0  0  0  0  0  0  0  0  0  0  0
   13.8585  136.0105  -10.9231 H   0  0  0  0  0  0  0  0  0  0  0  0
   15.2945  136.4089  -11.5909 H   0  0  0  0  0  0  0  0  0  0  0  0
  1  2  1  0  0  0  0
  2  3  1  0  0  0  0
  3  4  1  0  0  0  0
  4  5  2  0  0  0  0
  5  6  1  0  0  0  0
  6  7  2  0  0  0  0
  7  8  1  0  0  0  0
  8  9  1  0  0  0  0
  9 10  1  0  0  0  0
 10 11  2  0  0  0  0
 11 12  1  0  0  0  0
 12 13  1  0  0  0  0
 13 14  1  0  0  0  0
 13 15  1  0  0  0  0
 13 16  1  0  0  0  0
 16 17  2  0  0  0  0
 17 18  1  0  0  0  0
 18 19  2  0  0  0  0
 19 20  1  0  0  0  0
 20 21  1  0  0  0  0
 12 22  2  0  0  0  0
 22 23  1  0  0  0  0
 23 24  2  0  0  0  0
 24 25  1  0  0  0  0
 25 26  3  0  0  0  0
  8 27  2  0  0  0  0
  3 28  1  0  0  0  0
 28 29  1  0  0  0  0
 29 30  1  0  0  0  0
 30 31  1  0  0  0  0
 31 32  1  0  0  0  0
 32 33  1  0  0  0  0
 32 34  1  0  0  0  0
 34 35  2  0  0  0  0
 34  3  1  0  0  0  0
 27  4  1  0  0  0  0
 24 10  1  0  0  0  0
 20 16  1  0  0  0  0
  1 36  1  0  0  0  0
  1 37  1  0  0  0  0
  1 38  1  0  0  0  0
  2 39  1  0  0  0  0
  2 40  1  0  0  0  0
  5 41  1  0  0  0  0
  6 42  1  0  0  0  0
  7 43  1  0  0  0  0
 11 44  1  0  0  0  0
 14 45  1  0  0  0  0
 14 46  1  0  0  0  0
 14 47  1  0  0  0  0
 15 48  1  0  0  0  0
 15 49  1  0  0  0  0
 15 50  1  0  0  0  0
 17 51  1  0  0  0  0
 19 52  1  0  0  0  0
 21 53  1  0  0  0  0
 21 54  1  0  0  0  0
 21 55  1  0  0  0  0
 22 56  1  0  0  0  0
 23 57  1  0  0  0  0
 27 58  1  0  0  0  0
 28 59  1  0  0  0  0
 28 60  1  0  0  0  0
 29 61  1  0  0  0  0
 29 62  1  0  0  0  0
 30 63  1  0  0  0  0
 30 64  1  0  0  0  0
 31 65  1  0  0  0  0
 31 66  1  0  0  0  0
 33 67  1  0  0  0  0
 33 68  1  0  0  0  0
 33 69  1  0  0  0  0
M  CHG  1  15   1
M  END
>  <docking-score>
-24.90

$$$$
1LD7_U66_1
foFlexX   03192112203D 1   1.00000     0.00000     0
FlexX 4.5.0 fol007
 62 67  0  0  0  0            999 V2000
   15.2831  140.1614   -6.8350 N   0  0  0  0  0  0  0  0  0  0  0  0
   16.1359  139.6057   -6.2842 C   0  0  0  0  0  0  0  0  0  0  0  0
   17.2215  138.8979   -5.5823 C   0  0  2  0  0  0  0  0  0  0  0  0
   17.7192  137.7067   -6.4425 C   0  0  0  0  0  0  0  0  0  0  0  0
   16.9384  136.4523   -6.1598 C   0  0  0  0  0  0  0  0  0  0  0  0
   16.6800  136.1090   -4.8874 C   0  0  0  0  0  0  0  0  0  0  0  0
   17.1391  137.0410   -3.7893 C   0  0  0  0  0  0  0  0  0  0  0  0
   16.7626  138.4967   -4.1399 C   0  0  1  0  0  0  0  0  0  0  0  0
   17.3327  139.4098   -3.1956 O   0  0  0  0  0  0  0  0  0  0  0  0
   16.8998  139.4911   -1.8687 C   0  0  0  0  0  0  0  0  0  0  0  0
   16.0140  140.5016   -1.4859 C   0  0  0  0  0  0  0  0  0  0  0  0
   15.5764  140.5898   -0.1615 C   0  0  0  0  0  0  0  0  0  0  0  0
   16.0008  139.6473    0.7890 C   0  0  0  0  0  0  0  0  0  0  0  0
   15.5588  139.7313    2.1175 C   0  0  0  0  0  0  0  0  0  0  0  0
   15.9746  138.7871    3.0577 C   0  0  0  0  0  0  0  0  0  0  0  0
   16.8129  137.7370    2.6787 C   0  0  0  0  0  0  0  0  0  0  0  0
   17.2552  137.6217    1.3553 C   0  0  0  0  0  0  0  0  0  0  0  0
   16.8808  138.6037    0.4040 C   0  0  0  0  0  0  0  0  0  0  0  0
   17.3635  138.5757   -0.9184 C   0  0  0  0  0  0  0  0  0  0  0  0
   18.0347  136.4743    0.9848 N   0  0  0  0  0  0  0  0  0  0  0  0
   19.4733  136.4047    1.1716 C   0  0  0  0  0  0  0  0  0  0  0  0
   19.9424  135.1940    0.3447 C   0  0  0  0  0  0  0  0  0  0  0  0
   18.8191  134.9015   -0.6713 C   0  0  1  0  0  0  0  0  0  0  0  0
   18.6446  133.4483   -0.8984 N   0  3  0  0  0  0  0  0  0  0  0  0
   17.7797  133.1155   -2.0501 C   0  0  0  0  0  0  0  0  0  0  0  0
   18.4143  133.4804   -3.4055 C   0  0  0  0  0  0  0  0  0  0  0  0
   17.5564  133.0263   -4.5528 C   0  0  0  0  0  0  0  0  0  0  0  0
   17.7492  131.8771   -5.2880 C   0  0  0  0  0  0  0  0  0  0  0  0
   16.7985  131.7903   -6.2397 N   0  0  0  0  0  0  0  0  0  0  0  0
   16.0394  132.8921   -6.0606 C   0  0  0  0  0  0  0  0  0  0  0  0
   16.4705  133.6628   -5.0413 N   0  0  0  0  0  0  0  0  0  0  0  0
   15.8342  134.8981   -4.5727 C   0  0  0  0  0  0  0  0  0  0  0  0
   17.6501  135.5600   -0.0268 C   0  0  0  0  0  0  0  0  0  0  0  0
   16.4539  135.4238   -0.3977 O   0  0  0  0  0  0  0  0  0  0  0  0
   17.9840  139.5379   -5.4871 H   0  0  0  0  0  0  0  0  0  0  0  0
   18.6841  137.5408   -6.2390 H   0  0  0  0  0  0  0  0  0  0  0  0
   17.6179  137.9406   -7.4095 H   0  0  0  0  0  0  0  0  0  0  0  0
   16.6146  135.8791   -6.9126 H   0  0  0  0  0  0  0  0  0  0  0  0
   18.1315  136.9707   -3.6887 H   0  0  0  0  0  0  0  0  0  0  0  0
   16.6979  136.7827   -2.9298 H   0  0  0  0  0  0  0  0  0  0  0  0
   15.7672  138.5814   -4.0941 H   0  0  0  0  0  0  0  0  0  0  0  0
   15.6919  141.1641   -2.1621 H   0  0  0  0  0  0  0  0  0  0  0  0
   14.9583  141.3274    0.1105 H   0  0  0  0  0  0  0  0  0  0  0  0
   14.9435  140.4703    2.3920 H   0  0  0  0  0  0  0  0  0  0  0  0
   15.6706  138.8632    4.0073 H   0  0  0  0  0  0  0  0  0  0  0  0
   17.0998  137.0616    3.3581 H   0  0  0  0  0  0  0  0  0  0  0  0
   18.0457  137.8934   -1.1812 H   0  0  0  0  0  0  0  0  0  0  0  0
   19.6935  136.2732    2.1381 H   0  0  0  0  0  0  0  0  0  0  0  0
   19.9087  137.2422    0.8415 H   0  0  0  0  0  0  0  0  0  0  0  0
   20.0857  134.4031    0.9395 H   0  0  0  0  0  0  0  0  0  0  0  0
   20.7937  135.4102   -0.1333 H   0  0  0  0  0  0  0  0  0  0  0  0
   19.0241  135.3549   -1.5387 H   0  0  0  0  0  0  0  0  0  0  0  0
   18.2396  133.0486   -0.0761 H   0  0  0  0  0  0  0  0  0  0  0  0
   19.5459  133.0449   -1.0559 H   0  0  0  0  0  0  0  0  0  0  0  0
   16.9186  133.6153   -1.9568 H   0  0  0  0  0  0  0  0  0  0  0  0
   17.5974  132.1324   -2.0381 H   0  0  0  0  0  0  0  0  0  0  0  0
   19.3096  133.0402   -3.4745 H   0  0  0  0  0  0  0  0  0  0  0  0
   18.5261  134.4728   -3.4558 H   0  0  0  0  0  0  0  0  0  0  0  0
   18.4803  131.2113   -5.1389 H   0  0  0  0  0  0  0  0  0  0  0  0
   15.2429  133.1131   -6.6233 H   0  0  0  0  0  0  0  0  0  0  0  0
   15.7034  134.8412   -3.5829 H   0  0  0  0  0  0  0  0  0  0  0  0
   14.9458  134.9966   -5.0212 H   0  0  0  0  0  0  0  0  0  0  0  0
  1  2  3  0  0  0  0
  2  3  1  0  0  0  0
  3  4  1  0  0  0  0
  4  5  1  0  0  0  0
  5  6  2  0  0  0  0
  6  7  1  0  0  0  0
  7  8  1  0  0  0  0
  8  9  1  0  0  0  0
  9 10  1  0  0  0  0
 10 11  2  0  0  0  0
 11 12  1  0  0  0  0
 12 13  2  0  0  0  0
 13 14  1  0  0  0  0
 14 15  2  0  0  0  0
 15 16  1  0  0  0  0
 16 17  2  0  0  0  0
 17 18  1  0  0  0  0
 18 19  2  0  0  0  0
 17 20  1  0  0  0  0
 20 21  1  0  0  0  0
 21 22  1  0  0  0  0
 22 23  1  0  0  0  0
 23 24  1  0  0  0  0
 24 25  1  0  0  0  0
 25 26  1  0  0  0  0
 26 27  1  0  0  0  0
 27 28  2  0  0  0  0
 28 29  1  0  0  0  0
 29 30  2  0  0  0  0
 30 31  1  0  0  0  0
 31 32  1  0  0  0  0
 23 33  1  0  0  0  0
 33 34  2  0  0  0  0
  8  3  1  0  0  0  0
 19 10  1  0  0  0  0
 33 20  1  0  0  0  0
 32  6  1  0  0  0  0
 18 13  1  0  0  0  0
 31 27  1  0  0  0  0
  3 35  1  0  0  0  0
  4 36  1  0  0  0  0
  4 37  1  0  0  0  0
  5 38  1  0  0  0  0
  7 39  1  0  0  0  0
  7 40  1  0  0  0  0
  8 41  1  0  0  0  0
 11 42  1  0  0  0  0
 12 43  1  0  0  0  0
 14 44  1  0  0  0  0
 15 45  1  0  0  0  0
 16 46  1  0  0  0  0
 19 47  1  0  0  0  0
 21 48  1  0  0  0  0
 21 49  1  0  0  0  0
 22 50  1  0  0  0  0
 22 51  1  0  0  0  0
 23 52  1  0  0  0  0
 24 53  1  0  0  0  0
 24 54  1  0  0  0  0
 25 55  1  0  0  0  0
 25 56  1  0  0  0  0
 26 57  1  0  0  0  0
 26 58  1  0  0  0  0
 28 59  1  0  0  0  0
 30 60  1  0  0  0  0
 32 61  1  0  0  0  0
 32 62  1  0  0  0  0
M  CHG  1  24   1
M  END
>  <docking-score>
-16.84

$$$$
1LD7_U66_2
foFlexX   03192112203D 1   1.00000     0.00000     0
FlexX 4.5.0 fol007
 62 67  0  0  0  0            999 V2000
   23.5266  133.6151   -3.7954 N   0  0  0  0  0  0  0  0  0  0  0  0
   23.0363  134.4836   -3.2083 C   0  0  0  0  0  0  0  0  0  0  0  0
   22.4116  135.5896   -2.4608 C   0  0  2  0  0  0  0  0  0  0  0  0
   22.5380  135.3352   -0.9358 C   0  0  0  0  0  0  0  0  0  0  0  0
   21.3772  134.5377   -0.4069 C   0  0  0  0  0  0  0  0  0  0  0  0
   20.1292  134.8607   -0.7834 C   0  0  0  0  0  0  0  0  0  0  0  0
   19.9521  135.9845   -1.7788 C   0  0  0  0  0  0  0  0  0  0  0  0
   20.9413  135.8123   -2.9517 C   0  0  1  0  0  0  0  0  0  0  0  0
   20.9040  136.9516   -3.8183 O   0  0  0  0  0  0  0  0  0  0  0  0
   19.8053  137.2455   -4.6315 C   0  0  0  0  0  0  0  0  0  0  0  0
   19.8286  136.9003   -5.9852 C   0  0  0  0  0  0  0  0  0  0  0  0
   18.7344  137.1905   -6.8048 C   0  0  0  0  0  0  0  0  0  0  0  0
   17.5914  137.8055   -6.2688 C   0  0  0  0  0  0  0  0  0  0  0  0
   16.4903  138.0930   -7.0888 C   0  0  0  0  0  0  0  0  0  0  0  0
   15.3517  138.6955   -6.5510 C   0  0  0  0  0  0  0  0  0  0  0  0
   15.2890  138.9936   -5.1886 C   0  0  0  0  0  0  0  0  0  0  0  0
   16.3684  138.7021   -4.3459 C   0  0  0  0  0  0  0  0  0  0  0  0
   17.5492  138.1376   -4.8905 C   0  0  0  0  0  0  0  0  0  0  0  0
   18.6894  137.8996   -4.0995 C   0  0  0  0  0  0  0  0  0  0  0  0
   16.2264  138.9333   -2.9360 N   0  0  0  0  0  0  0  0  0  0  0  0
   16.4642  140.2275   -2.3214 C   0  0  0  0  0  0  0  0  0  0  0  0
   16.5456  139.9609   -0.8075 C   0  0  0  0  0  0  0  0  0  0  0  0
   16.8300  138.4532   -0.6476 C   0  0  1  0  0  0  0  0  0  0  0  0
   16.1245  137.8791    0.5214 N   0  3  0  0  0  0  0  0  0  0  0  0
   16.5658  136.5158    0.8847 C   0  0  0  0  0  0  0  0  0  0  0  0
   17.9998  136.4762    1.4458 C   0  0  0  0  0  0  0  0  0  0  0  0
   18.3706  135.0946    1.9065 C   0  0  0  0  0  0  0  0  0  0  0  0
   18.3358  134.6517    3.2107 C   0  0  0  0  0  0  0  0  0  0  0  0
   18.7387  133.3661    3.2572 N   0  0  0  0  0  0  0  0  0  0  0  0
   19.0076  133.0495    1.9728 C   0  0  0  0  0  0  0  0  0  0  0  0
   18.7909  134.0763    1.1258 N   0  0  0  0  0  0  0  0  0  0  0  0
   18.9495  134.0330   -0.3314 C   0  0  0  0  0  0  0  0  0  0  0  0
   16.3690  137.9183   -1.9578 C   0  0  0  0  0  0  0  0  0  0  0  0
   16.2261  136.6955   -2.2247 O   0  0  0  0  0  0  0  0  0  0  0  0
   22.9265  136.4210   -2.6697 H   0  0  0  0  0  0  0  0  0  0  0  0
   22.5694  136.2152   -0.4619 H   0  0  0  0  0  0  0  0  0  0  0  0
   23.3840  134.8317   -0.7602 H   0  0  0  0  0  0  0  0  0  0  0  0
   21.5334  133.7739    0.2194 H   0  0  0  0  0  0  0  0  0  0  0  0
   20.1251  136.8588   -1.3253 H   0  0  0  0  0  0  0  0  0  0  0  0
   19.0160  135.9709   -2.1305 H   0  0  0  0  0  0  0  0  0  0  0  0
   20.6633  135.0096   -3.4793 H   0  0  0  0  0  0  0  0  0  0  0  0
   20.6313  136.4439   -6.3691 H   0  0  0  0  0  0  0  0  0  0  0  0
   18.7655  136.9591   -7.7771 H   0  0  0  0  0  0  0  0  0  0  0  0
   16.5211  137.8656   -8.0621 H   0  0  0  0  0  0  0  0  0  0  0  0
   14.5773  138.9146   -7.1445 H   0  0  0  0  0  0  0  0  0  0  0  0
   14.4662  139.4190   -4.8114 H   0  0  0  0  0  0  0  0  0  0  0  0
   18.7016  138.2019   -3.1463 H   0  0  0  0  0  0  0  0  0  0  0  0
   15.7117  140.8538   -2.5251 H   0  0  0  0  0  0  0  0  0  0  0  0
   17.3226  140.6187   -2.6532 H   0  0  0  0  0  0  0  0  0  0  0  0
   15.6798  140.1984   -0.3671 H   0  0  0  0  0  0  0  0  0  0  0  0
   17.2848  140.4977   -0.4008 H   0  0  0  0  0  0  0  0  0  0  0  0
   17.8144  138.3053   -0.5519 H   0  0  0  0  0  0  0  0  0  0  0  0
   15.1469  137.8475    0.3133 H   0  0  0  0  0  0  0  0  0  0  0  0
   16.2790  138.4787    1.3066 H   0  0  0  0  0  0  0  0  0  0  0  0
   16.5273  135.9402    0.0679 H   0  0  0  0  0  0  0  0  0  0  0  0
   15.9425  136.1533    1.5776 H   0  0  0  0  0  0  0  0  0  0  0  0
   18.0636  137.1055    2.2203 H   0  0  0  0  0  0  0  0  0  0  0  0
   18.6371  136.7625    0.7303 H   0  0  0  0  0  0  0  0  0  0  0  0
   18.0555  135.1985    3.9996 H   0  0  0  0  0  0  0  0  0  0  0  0
   19.3326  132.1500    1.6807 H   0  0  0  0  0  0  0  0  0  0  0  0
   18.1191  134.3894   -0.7596 H   0  0  0  0  0  0  0  0  0  0  0  0
   19.0901  133.0844   -0.6150 H   0  0  0  0  0  0  0  0  0  0  0  0
  1  2  3  0  0  0  0
  2  3  1  0  0  0  0
  3  4  1  0  0  0  0
  4  5  1  0  0  0  0
  5  6  2  0  0  0  0
  6  7  1  0  0  0  0
  7  8  1  0  0  0  0
  8  9  1  0  0  0  0
  9 10  1  0  0  0  0
 10 11  2  0  0  0  0
 11 12  1  0  0  0  0
 12 13  2  0  0  0  0
 13 14  1  0  0  0  0
 14 15  2  0  0  0  0
 15 16  1  0  0  0  0
 16 17  2  0  0  0  0
 17 18  1  0  0  0  0
 18 19  2  0  0  0  0
 17 20  1  0  0  0  0
 20 21  1  0  0  0  0
 21 22  1  0  0  0  0
 22 23  1  0  0  0  0
 23 24  1  0  0  0  0
 24 25  1  0  0  0  0
 25 26  1  0  0  0  0
 26 27  1  0  0  0  0
 27 28  2  0  0  0  0
 28 29  1  0  0  0  0
 29 30  2  0  0  0  0
 30 31  1  0  0  0  0
 31 32  1  0  0  0  0
 23 33  1  0  0  0  0
 33 34  2  0  0  0  0
  8  3  1  0  0  0  0
 19 10  1  0  0  0  0
 33 20  1  0  0  0  0
 32  6  1  0  0  0  0
 18 13  1  0  0  0  0
 31 27  1  0  0  0  0
  3 35  1  0  0  0  0
  4 36  1  0  0  0  0
  4 37  1  0  0  0  0
  5 38  1  0  0  0  0
  7 39  1  0  0  0  0
  7 40  1  0  0  0  0
  8 41  1  0  0  0  0
 11 42  1  0  0  0  0
 12 43  1  0  0  0  0
 14 44  1  0  0  0  0
 15 45  1  0  0  0  0
 16 46  1  0  0  0  0
 19 47  1  0  0  0  0
 21 48  1  0  0  0  0
 21 49  1  0  0  0  0
 22 50  1  0  0  0  0
 22 51  1  0  0  0  0
 23 52  1  0  0  0  0
 24 53  1  0  0  0  0
 24 54  1  0  0  0  0
 25 55  1  0  0  0  0
 25 56  1  0  0  0  0
 26 57  1  0  0  0  0
 26 58  1  0  0  0  0
 28 59  1  0  0  0  0
 30 60  1  0  0  0  0
 32 61  1  0  0  0  0
 32 62  1  0  0  0  0
M  CHG  1  24   1
M  END
>  <docking-score>
-16.53

$$$$
1LD7_U66_3
foFlexX   03192112203D 1   1.00000     0.00000     0
FlexX 4.5.0 fol007
 62 67  0  0  0  0            999 V2000
   14.9463  139.9189   -6.9888 N   0  0  0  0  0  0  0  0  0  0  0  0
   15.6951  139.0364   -6.9848 C   0  0  0  0  0  0  0  0  0  0  0  0
   16.6488  137.9128   -6.9794 C   0  0  2  0  0  0  0  0  0  0  0  0
   15.8879  136.5722   -7.1535 C   0  0  0  0  0  0  0  0  0  0  0  0
   15.4576  136.0011   -5.8298 C   0  0  0  0  0  0  0  0  0  0  0  0
   16.3265  135.9822   -4.8060 C   0  0  0  0  0  0  0  0  0  0  0  0
   17.6913  136.5972   -5.0166 C   0  0  0  0  0  0  0  0  0  0  0  0
   17.5507  137.9742   -5.7006 C   0  0  1  0  0  0  0  0  0  0  0  0
   18.8350  138.4971   -6.0576 O   0  0  0  0  0  0  0  0  0  0  0  0
   19.7639  138.9308   -5.1068 C   0  0  0  0  0  0  0  0  0  0  0  0
   19.8923  140.2943   -4.8301 C   0  0  0  0  0  0  0  0  0  0  0  0
   20.8183  140.7361   -3.8811 C   0  0  0  0  0  0  0  0  0  0  0  0
   21.6072  139.8117   -3.1776 C   0  0  0  0  0  0  0  0  0  0  0  0
   22.5336  140.2528   -2.2212 C   0  0  0  0  0  0  0  0  0  0  0  0
   23.3093  139.3309   -1.5164 C   0  0  0  0  0  0  0  0  0  0  0  0
   23.1520  137.9616   -1.7386 C   0  0  0  0  0  0  0  0  0  0  0  0
   22.2228  137.4950   -2.6763 C   0  0  0  0  0  0  0  0  0  0  0  0
   21.4666  138.4239   -3.4344 C   0  0  0  0  0  0  0  0  0  0  0  0
   20.5779  138.0068   -4.4438 C   0  0  0  0  0  0  0  0  0  0  0  0
   22.0216  136.0792   -2.8041 N   0  0  0  0  0  0  0  0  0  0  0  0
   22.8595  135.2358   -3.6383 C   0  0  0  0  0  0  0  0  0  0  0  0
   22.1083  133.8983   -3.7655 C   0  0  0  0  0  0  0  0  0  0  0  0
   20.6395  134.1890   -3.3947 C   0  0  1  0  0  0  0  0  0  0  0  0
   20.0265  133.0676   -2.6461 N   0  3  0  0  0  0  0  0  0  0  0  0
   18.5589  133.1681   -2.5002 C   0  0  0  0  0  0  0  0  0  0  0  0
   17.8072  132.9867   -3.8325 C   0  0  0  0  0  0  0  0  0  0  0  0
   16.3185  132.9837   -3.6263 C   0  0  0  0  0  0  0  0  0  0  0  0
   15.5252  131.8598   -3.5507 C   0  0  0  0  0  0  0  0  0  0  0  0
   14.2418  132.2298   -3.3684 N   0  0  0  0  0  0  0  0  0  0  0  0
   14.2809  133.5786   -3.3319 C   0  0  0  0  0  0  0  0  0  0  0  0
   15.5282  134.0689   -3.4820 N   0  0  0  0  0  0  0  0  0  0  0  0
   15.9019  135.4864   -3.4442 C   0  0  0  0  0  0  0  0  0  0  0  0
   20.7700  135.4453   -2.6071 C   0  0  0  0  0  0  0  0  0  0  0  0
   19.8463  135.9664   -1.9270 O   0  0  0  0  0  0  0  0  0  0  0  0
   17.2467  138.0233   -7.7733 H   0  0  0  0  0  0  0  0  0  0  0  0
   16.4883  135.9156   -7.6100 H   0  0  0  0  0  0  0  0  0  0  0  0
   15.0772  136.7305   -7.7171 H   0  0  0  0  0  0  0  0  0  0  0  0
   14.5329  135.6388   -5.7134 H   0  0  0  0  0  0  0  0  0  0  0  0
   18.2404  135.9944   -5.5956 H   0  0  0  0  0  0  0  0  0  0  0  0
   18.1430  136.7117   -4.1318 H   0  0  0  0  0  0  0  0  0  0  0  0
   17.1270  138.6043   -5.0498 H   0  0  0  0  0  0  0  0  0  0  0  0
   19.3194  140.9566   -5.3129 H   0  0  0  0  0  0  0  0  0  0  0  0
   20.9195  141.7147   -3.7024 H   0  0  0  0  0  0  0  0  0  0  0  0
   22.6387  141.2313   -2.0437 H   0  0  0  0  0  0  0  0  0  0  0  0
   23.9810  139.6528   -0.8492 H   0  0  0  0  0  0  0  0  0  0  0  0
   23.7076  137.3087   -1.2238 H   0  0  0  0  0  0  0  0  0  0  0  0
   20.5283  137.0387   -4.6896 H   0  0  0  0  0  0  0  0  0  0  0  0
   23.7512  135.0954   -3.2079 H   0  0  0  0  0  0  0  0  0  0  0  0
   22.9859  135.6518   -4.5389 H   0  0  0  0  0  0  0  0  0  0  0  0
   22.4963  133.2224   -3.1389 H   0  0  0  0  0  0  0  0  0  0  0  0
   22.1673  133.5559   -4.7032 H   0  0  0  0  0  0  0  0  0  0  0  0
   20.1120  134.3665   -4.2255 H   0  0  0  0  0  0  0  0  0  0  0  0
   20.4317  133.0418   -1.7322 H   0  0  0  0  0  0  0  0  0  0  0  0
   20.2365  132.2168   -3.1279 H   0  0  0  0  0  0  0  0  0  0  0  0
   18.3366  134.0697   -2.1292 H   0  0  0  0  0  0  0  0  0  0  0  0
   18.2529  132.4608   -1.8630 H   0  0  0  0  0  0  0  0  0  0  0  0
   18.0803  132.1174   -4.2444 H   0  0  0  0  0  0  0  0  0  0  0  0
   18.0489  133.7374   -4.4472 H   0  0  0  0  0  0  0  0  0  0  0  0
   15.8506  130.9168   -3.6202 H   0  0  0  0  0  0  0  0  0  0  0  0
   13.4717  134.1527   -3.2071 H   0  0  0  0  0  0  0  0  0  0  0  0
   16.6605  135.6057   -2.8036 H   0  0  0  0  0  0  0  0  0  0  0  0
   15.1162  136.0216   -3.1338 H   0  0  0  0  0  0  0  0  0  0  0  0
  1  2  3  0  0  0  0
  2  3  1  0  0  0  0
  3  4  1  0  0  0  0
  4  5  1  0  0  0  0
  5  6  2  0  0  0  0
  6  7  1  0  0  0  0
  7  8  1  0  0  0  0
  8  9  1  0  0  0  0
  9 10  1  0  0  0  0
 10 11  2  0  0  0  0
 11 12  1  0  0  0  0
 12 13  2  0  0  0  0
 13 14  1  0  0  0  0
 14 15  2  0  0  0  0
 15 16  1  0  0  0  0
 16 17  2  0  0  0  0
 17 18  1  0  0  0  0
 18 19  2  0  0  0  0
 17 20  1  0  0  0  0
 20 21  1  0  0  0  0
 21 22  1  0  0  0  0
 22 23  1  0  0  0  0
 23 24  1  0  0  0  0
 24 25  1  0  0  0  0
 25 26  1  0  0  0  0
 26 27  1  0  0  0  0
 27 28  2  0  0  0  0
 28 29  1  0  0  0  0
 29 30  2  0  0  0  0
 30 31  1  0  0  0  0
 31 32  1  0  0  0  0
 23 33  1  0  0  0  0
 33 34  2  0  0  0  0
  8  3  1  0  0  0  0
 19 10  1  0  0  0  0
 33 20  1  0  0  0  0
 32  6  1  0  0  0  0
 18 13  1  0  0  0  0
 31 27  1  0  0  0  0
  3 35  1  0  0  0  0
  4 36  1  0  0  0  0
  4 37  1  0  0  0  0
  5 38  1  0  0  0  0
  7 39  1  0  0  0  0
  7 40  1  0  0  0  0
  8 41  1  0  0  0  0
 11 42  1  0  0  0  0
 12 43  1  0  0  0  0
 14 44  1  0  0  0  0
 15 45  1  0  0  0  0
 16 46  1  0  0  0  0
 19 47  1  0  0  0  0
 21 48  1  0  0  0  0
 21 49  1  0  0  0  0
 22 50  1  0  0  0  0
 22 51  1  0  0  0  0
 23 52  1  0  0  0  0
 24 53  1  0  0  0  0
 24 54  1  0  0  0  0
 25 55  1  0  0  0  0
 25 56  1  0  0  0  0
 26 57  1  0  0  0  0
 26 58  1  0  0  0  0
 28 59  1  0  0  0  0
 30 60  1  0  0  0  0
 32 61  1  0  0  0  0
 32 62  1  0  0  0  0
M  CHG  1  24   1
M  END
>  <docking-score>
-15.99

$$$$
1S63_778_1
foFlexX   03192112203D 1   1.00000     0.00000     0
FlexX 4.5.0 fol007
 50 53  0  0  0  0            999 V2000
   11.6244  131.4443   -2.0958 N   0  0  0  0  0  0  0  0  0  0  0  0
   12.5179  131.9267   -2.6505 C   0  0  0  0  0  0  0  0  0  0  0  0
   13.6298  132.5248   -3.3414 C   0  0  0  0  0  0  0  0  0  0  0  0
   13.4281  133.0922   -4.5957 C   0  0  0  0  0  0  0  0  0  0  0  0
   14.4932  133.6744   -5.2748 C   0  0  0  0  0  0  0  0  0  0  0  0
   15.7528  133.6796   -4.6845 C   0  0  0  0  0  0  0  0  0  0  0  0
   16.9257  134.3112   -5.4165 C   0  0  0  0  0  0  0  0  0  0  0  0
   16.5071  134.8482   -6.7146 N   0  0  0  0  0  0  0  0  0  0  0  0
   16.5081  134.1592   -7.8922 C   0  0  0  0  0  0  0  0  0  0  0  0
   16.0670  134.9678   -8.8306 N   0  0  0  0  0  0  0  0  0  0  0  0
   15.7789  136.1799   -8.2698 C   0  0  0  0  0  0  0  0  0  0  0  0
   16.0543  136.1129   -6.9352 C   0  0  0  0  0  0  0  0  0  0  0  0
   15.8825  137.2225   -5.9108 C   0  0  0  0  0  0  0  0  0  0  0  0
   17.1066  138.0505   -5.7718 N   0  3  1  0  0  0  0  0  0  0  0  0
   17.0783  138.6271   -4.4120 C   0  0  0  0  0  0  0  0  0  0  0  0
   18.4412  138.8281   -3.7479 C   0  0  0  0  0  0  0  0  0  0  0  0
   19.6150  138.7652   -4.6445 N   0  0  0  0  0  0  0  0  0  0  0  0
   20.7619  139.5190   -4.3547 C   0  0  0  0  0  0  0  0  0  0  0  0
   21.2037  140.4703   -5.2687 C   0  0  0  0  0  0  0  0  0  0  0  0
   22.3407  141.2161   -4.9754 C   0  0  0  0  0  0  0  0  0  0  0  0
   23.0341  141.0206   -3.7859 C   0  0  0  0  0  0  0  0  0  0  0  0
   22.5746  140.0644   -2.8859 C   0  0  0  0  0  0  0  0  0  0  0  0
   23.4476  139.7991   -1.3578 Cl  0  0  0  0  0  0  0  0  0  0  0  0
   21.4400  139.3074   -3.1590 C   0  0  0  0  0  0  0  0  0  0  0  0
   19.5540  137.9444   -5.7782 C   0  0  0  0  0  0  0  0  0  0  0  0
   20.5051  137.8249   -6.5330 O   0  0  0  0  0  0  0  0  0  0  0  0
   18.2658  137.1877   -6.0645 C   0  0  0  0  0  0  0  0  0  0  0  0
   15.9581  133.1128   -3.4310 C   0  0  0  0  0  0  0  0  0  0  0  0
   14.8907  132.5315   -2.7538 C   0  0  0  0  0  0  0  0  0  0  0  0
   12.5176  133.0813   -5.0089 H   0  0  0  0  0  0  0  0  0  0  0  0
   14.3551  134.0842   -6.1764 H   0  0  0  0  0  0  0  0  0  0  0  0
   17.6320  133.6183   -5.5616 H   0  0  0  0  0  0  0  0  0  0  0  0
   17.2971  135.0541   -4.8595 H   0  0  0  0  0  0  0  0  0  0  0  0
   16.7934  133.2092   -8.0190 H   0  0  0  0  0  0  0  0  0  0  0  0
   15.4263  136.9801   -8.7550 H   0  0  0  0  0  0  0  0  0  0  0  0
   15.6686  136.8123   -5.0243 H   0  0  0  0  0  0  0  0  0  0  0  0
   15.1263  137.8109   -6.1970 H   0  0  0  0  0  0  0  0  0  0  0  0
   17.0757  138.7928   -6.4412 H   0  0  0  0  0  0  0  0  0  0  0  0
   16.5404  138.0166   -3.8307 H   0  0  0  0  0  0  0  0  0  0  0  0
   16.6284  139.5185   -4.4657 H   0  0  0  0  0  0  0  0  0  0  0  0
   18.4385  139.7271   -3.3101 H   0  0  0  0  0  0  0  0  0  0  0  0
   18.5498  138.1186   -3.0516 H   0  0  0  0  0  0  0  0  0  0  0  0
   20.7099  140.6161   -6.1260 H   0  0  0  0  0  0  0  0  0  0  0  0
   22.6635  141.9015   -5.6281 H   0  0  0  0  0  0  0  0  0  0  0  0
   23.8510  141.5594   -3.5805 H   0  0  0  0  0  0  0  0  0  0  0  0
   21.1171  138.6222   -2.5061 H   0  0  0  0  0  0  0  0  0  0  0  0
   18.2453  136.9189   -7.0275 H   0  0  0  0  0  0  0  0  0  0  0  0
   18.2255  136.3706   -5.4894 H   0  0  0  0  0  0  0  0  0  0  0  0
   16.8689  133.1230   -3.0183 H   0  0  0  0  0  0  0  0  0  0  0  0
   15.0288  132.1220   -1.8520 H   0  0  0  0  0  0  0  0  0  0  0  0
  1  2  3  0  0  0  0
  2  3  1  0  0  0  0
  3  4  2  0  0  0  0
  4  5  1  0  0  0  0
  5  6  2  0  0  0  0
  6  7  1  0  0  0  0
  7  8  1  0  0  0  0
  8  9  1  0  0  0  0
  9 10  2  0  0  0  0
 10 11  1  0  0  0  0
 11 12  2  0  0  0  0
 12 13  1  0  0  0  0
 13 14  1  0  0  0  0
 14 15  1  0  0  0  0
 15 16  1  0  0  0  0
 16 17  1  0  0  0  0
 17 18  1  0  0  0  0
 18 19  2  0  0  0  0
 19 20  1  0  0  0  0
 20 21  2  0  0  0  0
 21 22  1  0  0  0  0
 22 23  1  0  0  0  0
 22 24  2  0  0  0  0
 17 25  1  0  0  0  0
 25 26  2  0  0  0  0
 25 27  1  0  0  0  0
  6 28  1  0  0  0  0
 28 29  2  0  0  0  0
 29  3  1  0  0  0  0
 12  8  1  0  0  0  0
 27 14  1  0  0  0  0
 24 18  1  0  0  0  0
  4 30  1  0  0  0  0
  5 31  1  0  0  0  0
  7 32  1  0  0  0  0
  7 33  1  0  0  0  0
  9 34  1  0  0  0  0
 11 35  1  0  0  0  0
 13 36  1  0  0  0  0
 13 37  1  0  0  0  0
 14 38  1  0  0  0  0
 15 39  1  0  0  0  0
 15 40  1  0  0  0  0
 16 41  1  0  0  0  0
 16 42  1  0  0  0  0
 19 43  1  0  0  0  0
 20 44  1  0  0  0  0
 21 45  1  0  0  0  0
 24 46  1  0  0  0  0
 27 47  1  0  0  0  0
 27 48  1  0  0  0  0
 28 49  1  0  0  0  0
 29 50  1  0  0  0  0
M  CHG  1  14   1
M  END
>  <docking-score>
-20.83

$$$$
1S63_778_2
foFlexX   03192112203D 1   1.00000     0.00000     0
FlexX 4.5.0 fol007
 50 53  0  0  0  0            999 V2000
   11.8290  131.5629   -1.8627 N   0  0  0  0  0  0  0  0  0  0  0  0
   12.7096  132.0425   -2.4399 C   0  0  0  0  0  0  0  0  0  0  0  0
   13.8052  132.6406   -3.1563 C   0  0  0  0  0  0  0  0  0  0  0  0
   15.1009  132.1927   -2.9190 C   0  0  0  0  0  0  0  0  0  0  0  0
   16.1694  132.7609   -3.6044 C   0  0  0  0  0  0  0  0  0  0  0  0
   15.9235  133.7762   -4.5230 C   0  0  0  0  0  0  0  0  0  0  0  0
   17.0823  134.4070   -5.2778 C   0  0  0  0  0  0  0  0  0  0  0  0
   16.6555  134.8742   -6.6001 N   0  0  0  0  0  0  0  0  0  0  0  0
   16.6814  134.1341   -7.7459 C   0  0  0  0  0  0  0  0  0  0  0  0
   16.2229  134.8879   -8.7209 N   0  0  0  0  0  0  0  0  0  0  0  0
   15.8988  136.1152   -8.2155 C   0  0  0  0  0  0  0  0  0  0  0  0
   16.1692  136.1149   -6.8782 C   0  0  0  0  0  0  0  0  0  0  0  0
   15.9619  137.2636   -5.9048 C   0  0  0  0  0  0  0  0  0  0  0  0
   17.1620  138.1305   -5.7980 N   0  3  1  0  0  0  0  0  0  0  0  0
   17.1111  138.7657   -4.4653 C   0  0  0  0  0  0  0  0  0  0  0  0
   18.4646  139.0336   -3.8056 C   0  0  0  0  0  0  0  0  0  0  0  0
   19.6442  138.9636   -4.6941 N   0  0  0  0  0  0  0  0  0  0  0  0
   20.7684  139.7610   -4.4337 C   0  0  0  0  0  0  0  0  0  0  0  0
   21.1884  140.6828   -5.3873 C   0  0  0  0  0  0  0  0  0  0  0  0
   22.3030  141.4721   -5.1231 C   0  0  0  0  0  0  0  0  0  0  0  0
   22.9955  141.3486   -3.9235 C   0  0  0  0  0  0  0  0  0  0  0  0
   22.5581  140.4208   -2.9837 C   0  0  0  0  0  0  0  0  0  0  0  0
   23.4303  140.2478   -1.4420 Cl  0  0  0  0  0  0  0  0  0  0  0  0
   21.4461  139.6214   -3.2272 C   0  0  0  0  0  0  0  0  0  0  0  0
   19.6114  138.0921   -5.7905 C   0  0  0  0  0  0  0  0  0  0  0  0
   20.5692  137.9657   -6.5356 O   0  0  0  0  0  0  0  0  0  0  0  0
   18.3460  137.2880   -6.0478 C   0  0  0  0  0  0  0  0  0  0  0  0
   14.6295  134.2269   -4.7623 C   0  0  0  0  0  0  0  0  0  0  0  0
   13.5625  133.6562   -4.0755 C   0  0  0  0  0  0  0  0  0  0  0  0
   15.2639  131.4624   -2.2557 H   0  0  0  0  0  0  0  0  0  0  0  0
   17.1032  132.4435   -3.4389 H   0  0  0  0  0  0  0  0  0  0  0  0
   17.8081  133.7282   -5.3894 H   0  0  0  0  0  0  0  0  0  0  0  0
   17.4303  135.1838   -4.7530 H   0  0  0  0  0  0  0  0  0  0  0  0
   16.9933  133.1877   -7.8294 H   0  0  0  0  0  0  0  0  0  0  0  0
   15.5268  136.8830   -8.7371 H   0  0  0  0  0  0  0  0  0  0  0  0
   15.7549  136.8872   -5.0017 H   0  0  0  0  0  0  0  0  0  0  0  0
   15.1912  137.8176   -6.2196 H   0  0  0  0  0  0  0  0  0  0  0  0
   17.1140  138.8413   -6.4998 H   0  0  0  0  0  0  0  0  0  0  0  0
   16.5873  138.1669   -3.8595 H   0  0  0  0  0  0  0  0  0  0  0  0
   16.6371  139.6411   -4.5601 H   0  0  0  0  0  0  0  0  0  0  0  0
   18.4350  139.9507   -3.4082 H   0  0  0  0  0  0  0  0  0  0  0  0
   18.5891  138.3588   -3.0781 H   0  0  0  0  0  0  0  0  0  0  0  0
   20.6951  140.7768   -6.2521 H   0  0  0  0  0  0  0  0  0  0  0  0
   22.6101  142.1366   -5.8044 H   0  0  0  0  0  0  0  0  0  0  0  0
   23.7963  141.9185   -3.7391 H   0  0  0  0  0  0  0  0  0  0  0  0
   21.1389  138.9571   -2.5458 H   0  0  0  0  0  0  0  0  0  0  0  0
   18.3377  136.9764   -6.9979 H   0  0  0  0  0  0  0  0  0  0  0  0
   18.3253  136.4964   -5.4371 H   0  0  0  0  0  0  0  0  0  0  0  0
   14.4668  134.9579   -5.4250 H   0  0  0  0  0  0  0  0  0  0  0  0
   12.6288  133.9736   -4.2412 H   0  0  0  0  0  0  0  0  0  0  0  0
  1  2  3  0  0  0  0
  2  3  1  0  0  0  0
  3  4  2  0  0  0  0
  4  5  1  0  0  0  0
  5  6  2  0  0  0  0
  6  7  1  0  0  0  0
  7  8  1  0  0  0  0
  8  9  1  0  0  0  0
  9 10  2  0  0  0  0
 10 11  1  0  0  0  0
 11 12  2  0  0  0  0
 12 13  1  0  0  0  0
 13 14  1  0  0  0  0
 14 15  1  0  0  0  0
 15 16  1  0  0  0  0
 16 17  1  0  0  0  0
 17 18  1  0  0  0  0
 18 19  2  0  0  0  0
 19 20  1  0  0  0  0
 20 21  2  0  0  0  0
 21 22  1  0  0  0  0
 22 23  1  0  0  0  0
 22 24  2  0  0  0  0
 17 25  1  0  0  0  0
 25 26  2  0  0  0  0
 25 27  1  0  0  0  0
  6 28  1  0  0  0  0
 28 29  2  0  0  0  0
 29  3  1  0  0  0  0
 12  8  1  0  0  0  0
 27 14  1  0  0  0  0
 24 18  1  0  0  0  0
  4 30  1  0  0  0  0
  5 31  1  0  0  0  0
  7 32  1  0  0  0  0
  7 33  1  0  0  0  0
  9 34  1  0  0  0  0
 11 35  1  0  0  0  0
 13 36  1  0  0  0  0
 13 37  1  0  0  0  0
 14 38  1  0  0  0  0
 15 39  1  0  0  0  0
 15 40  1  0  0  0  0
 16 41  1  0  0  0  0
 16 42  1  0  0  0  0
 19 43  1  0  0  0  0
 20 44  1  0  0  0  0
 21 45  1  0  0  0  0
 24 46  1  0  0  0  0
 27 47  1  0  0  0  0
 27 48  1  0  0  0  0
 28 49  1  0  0  0  0
 29 50  1  0  0  0  0
M  CHG  1  14   1
M  END
>  <docking-score>
-20.59

$$$$
1S63_778_3
foFlexX   03192112203D 1   1.00000     0.00000     0
FlexX 4.5.0 fol007
 50 53  0  0  0  0            999 V2000
   11.7399  131.5825   -1.7514 N   0  0  0  0  0  0  0  0  0  0  0  0
   12.6673  131.9914   -2.3094 C   0  0  0  0  0  0  0  0  0  0  0  0
   13.8212  132.5015   -3.0021 C   0  0  0  0  0  0  0  0  0  0  0  0
   15.0793  131.9898   -2.7004 C   0  0  0  0  0  0  0  0  0  0  0  0
   16.2032  132.4727   -3.3623 C   0  0  0  0  0  0  0  0  0  0  0  0
   16.0502  133.4677   -4.3223 C   0  0  0  0  0  0  0  0  0  0  0  0
   17.2703  134.0055   -5.0519 C   0  0  0  0  0  0  0  0  0  0  0  0
   16.9199  134.4499   -6.4042 N   0  0  0  0  0  0  0  0  0  0  0  0
   16.3872  133.6612   -7.3818 C   0  0  0  0  0  0  0  0  0  0  0  0
   16.2088  134.4095   -8.4482 N   0  0  0  0  0  0  0  0  0  0  0  0
   16.6229  135.6814   -8.1698 C   0  0  0  0  0  0  0  0  0  0  0  0
   17.0734  135.7151   -6.8824 C   0  0  0  0  0  0  0  0  0  0  0  0
   17.6252  136.9209   -6.1397 C   0  0  0  0  0  0  0  0  0  0  0  0
   17.6426  138.1401   -6.9863 N   0  3  1  0  0  0  0  0  0  0  0  0
   17.4157  139.3692   -6.2113 C   0  0  0  0  0  0  0  0  0  0  0  0
   18.4683  139.5132   -5.1262 C   0  0  0  0  0  0  0  0  0  0  0  0
   19.8416  139.3139   -5.6230 N   0  0  0  0  0  0  0  0  0  0  0  0
   20.9104  139.7515   -4.8285 C   0  0  0  0  0  0  0  0  0  0  0  0
   21.7909  140.7040   -5.3314 C   0  0  0  0  0  0  0  0  0  0  0  0
   22.8488  141.1358   -4.5380 C   0  0  0  0  0  0  0  0  0  0  0  0
   23.0324  140.6274   -3.2567 C   0  0  0  0  0  0  0  0  0  0  0  0
   22.1399  139.6760   -2.7734 C   0  0  0  0  0  0  0  0  0  0  0  0
   22.3573  139.0133   -1.1360 Cl  0  0  0  0  0  0  0  0  0  0  0  0
   21.0753  139.2301   -3.5496 C   0  0  0  0  0  0  0  0  0  0  0  0
   20.0798  138.6977   -6.8570 C   0  0  0  0  0  0  0  0  0  0  0  0
   21.2080  138.4768   -7.2664 O   0  0  0  0  0  0  0  0  0  0  0  0
   18.9039  138.2943   -7.7350 C   0  0  0  0  0  0  0  0  0  0  0  0
   14.7939  133.9820   -4.6259 C   0  0  0  0  0  0  0  0  0  0  0  0
   13.6713  133.4967   -3.9626 C   0  0  0  0  0  0  0  0  0  0  0  0
   15.1755  131.2750   -2.0079 H   0  0  0  0  0  0  0  0  0  0  0  0
   17.1104  132.1091   -3.1505 H   0  0  0  0  0  0  0  0  0  0  0  0
   17.9594  133.2834   -5.1132 H   0  0  0  0  0  0  0  0  0  0  0  0
   17.6429  134.7793   -4.5397 H   0  0  0  0  0  0  0  0  0  0  0  0
   16.1711  132.6881   -7.3017 H   0  0  0  0  0  0  0  0  0  0  0  0
   16.5997  136.4558   -8.8021 H   0  0  0  0  0  0  0  0  0  0  0  0
   18.5597  136.7189   -5.8466 H   0  0  0  0  0  0  0  0  0  0  0  0
   17.0542  137.0940   -5.3372 H   0  0  0  0  0  0  0  0  0  0  0  0
   16.9011  138.0589   -7.6523 H   0  0  0  0  0  0  0  0  0  0  0  0
   16.5102  139.3298   -5.7887 H   0  0  0  0  0  0  0  0  0  0  0  0
   17.4637  140.1584   -6.8236 H   0  0  0  0  0  0  0  0  0  0  0  0
   18.4008  140.4320   -4.7372 H   0  0  0  0  0  0  0  0  0  0  0  0
   18.2860  138.8354   -4.4139 H   0  0  0  0  0  0  0  0  0  0  0  0
   21.6648  141.0738   -6.2519 H   0  0  0  0  0  0  0  0  0  0  0  0
   23.4853  141.8203   -4.8936 H   0  0  0  0  0  0  0  0  0  0  0  0
   23.7949  140.9413   -2.6909 H   0  0  0  0  0  0  0  0  0  0  0  0
   20.4387  138.5458   -3.1940 H   0  0  0  0  0  0  0  0  0  0  0  0
   18.7740  138.9974   -8.4342 H   0  0  0  0  0  0  0  0  0  0  0  0
   19.1205  137.4228   -8.1748 H   0  0  0  0  0  0  0  0  0  0  0  0
   14.6980  134.6975   -5.3179 H   0  0  0  0  0  0  0  0  0  0  0  0
   12.7641  133.8601   -4.1746 H   0  0  0  0  0  0  0  0  0  0  0  0
  1  2  3  0  0  0  0
  2  3  1  0  0  0  0
  3  4  2  0  0  0  0
  4  5  1  0  0  0  0
  5  6  2  0  0  0  0
  6  7  1  0  0  0  0
  7  8  1  0  0  0  0
  8  9  1  0  0  0  0
  9 10  2  0  0  0  0
 10 11  1  0  0  0  0
 11 12  2  0  0  0  0
 12 13  1  0  0  0  0
 13 14  1  0  0  0  0
 14 15  1  0  0  0  0
 15 16  1  0  0  0  0
 16 17  1  0  0  0  0
 17 18  1  0  0  0  0
 18 19  2  0  0  0  0
 19 20  1  0  0  0  0
 20 21  2  0  0  0  0
 21 22  1  0  0  0  0
 22 23  1  0  0  0  0
 22 24  2  0  0  0  0
 17 25  1  0  0  0  0
 25 26  2  0  0  0  0
 25 27  1  0  0  0  0
  6 28  1  0  0  0  0
 28 29  2  0  0  0  0
 29  3  1  0  0  0  0
 12  8  1  0  0  0  0
 27 14  1  0  0  0  0
 24 18  1  0  0  0  0
  4 30  1  0  0  0  0
  5 31  1  0  0  0  0
  7 32  1  0  0  0  0
  7 33  1  0  0  0  0
  9 34  1  0  0  0  0
 11 35  1  0  0  0  0
 13 36  1  0  0  0  0
 13 37  1  0  0  0  0
 14 38  1  0  0  0  0
 15 39  1  0  0  0  0
 15 40  1  0  0  0  0
 16 41  1  0  0  0  0
 16 42  1  0  0  0  0
 19 43  1  0  0  0  0
 20 44  1  0  0  0  0
 21 45  1  0  0  0  0
 24 46  1  0  0  0  0
 27 47  1  0  0  0  0
 27 48  1  0  0  0  0
 28 49  1  0  0  0  0
 29 50  1  0  0  0  0
M  CHG  1  14   1
M  END
>  <docking-score>
-20.27

$$$$
3E37_ED5_1
foFlexX   03192112203D 1   1.00000     0.00000     0
FlexX 4.5.0 fol007
 85 88  0  0  0  0            999 V2000
   16.7092  138.6551   -4.7965 C   0  0  0  0  0  0  0  0  0  0  0  0
   17.9364  139.5512   -4.8356 C   0  0  0  0  0  0  0  0  0  0  0  0
   17.8079  140.8648   -4.3957 C   0  0  0  0  0  0  0  0  0  0  0  0
   18.9160  141.7047   -4.4216 C   0  0  0  0  0  0  0  0  0  0  0  0
   20.1384  141.2288   -4.8845 C   0  0  0  0  0  0  0  0  0  0  0  0
   20.2686  139.9157   -5.3249 C   0  0  0  0  0  0  0  0  0  0  0  0
   19.1597  139.0756   -5.2992 C   0  0  0  0  0  0  0  0  0  0  0  0
   19.3453  137.3984   -5.8666 S   0  0  0  0  0  0  0  0  0  0  0  0
   20.1229  137.3829   -7.1536 O   0  0  0  0  0  0  0  0  0  0  0  0
   17.9727  136.8724   -6.1800 O   0  0  0  0  0  0  0  0  0  0  0  0
   20.0678  136.3104   -4.6889 N   0  0  0  0  0  0  0  0  0  0  0  0
   19.0960  135.5786   -3.8511 C   0  0  0  0  0  0  0  0  0  0  0  0
   18.6490  134.2246   -4.4336 C   0  0  0  0  0  0  0  0  0  0  0  0
   18.3161  133.2937   -3.3499 N   0  0  0  0  0  0  0  0  0  0  0  0
   19.3167  132.9064   -2.3484 C   0  0  0  0  0  0  0  0  0  0  0  0
   20.6899  133.4264   -2.7446 C   0  0  0  0  0  0  0  0  0  0  0  0
   21.3580  133.1212   -3.8939 C   0  0  0  0  0  0  0  0  0  0  0  0
   22.5426  133.7951   -3.8556 N   0  0  0  0  0  0  0  0  0  0  0  0
   22.5997  134.4819   -2.7346 C   0  0  0  0  0  0  0  0  0  0  0  0
   21.4595  134.2813   -2.0205 N   0  0  0  0  0  0  0  0  0  0  0  0
   21.1255  134.8669   -0.7136 C   0  0  0  0  0  0  0  0  0  0  0  0
   16.9502  132.8991   -3.1623 C   0  0  0  0  0  0  0  0  0  0  0  0
   15.9321  133.7028   -3.6653 C   0  0  0  0  0  0  0  0  0  0  0  0
   14.6030  133.3323   -3.4900 C   0  0  0  0  0  0  0  0  0  0  0  0
   14.3109  132.1550   -2.8102 C   0  0  0  0  0  0  0  0  0  0  0  0
   12.8627  131.7378   -2.6130 C   0  0  0  0  0  0  0  0  0  0  0  0
   11.7602  131.4199   -2.4635 N   0  0  0  0  0  0  0  0  0  0  0  0
   15.3255  131.3477   -2.3058 C   0  0  0  0  0  0  0  0  0  0  0  0
   16.6536  131.7220   -2.4827 C   0  0  0  0  0  0  0  0  0  0  0  0
   21.2056  136.8936   -3.9526 C   0  0  0  0  0  0  0  0  0  0  0  0
   20.7253  137.6025   -2.6691 C   0  0  0  0  0  0  0  0  0  0  0  0
   21.8257  137.5204   -1.6303 C   0  0  0  0  0  0  0  0  0  0  0  0
   21.7152  138.6805   -0.6564 C   0  0  0  0  0  0  0  0  0  0  0  0
   20.2891  138.9951   -0.5152 N   0  0  0  0  0  0  0  0  0  0  0  0
   19.5637  138.7236    0.6540 C   0  0  0  0  0  0  0  0  0  0  0  0
   20.1370  138.1868    1.6406 O   0  0  0  0  0  0  0  0  0  0  0  0
   18.1999  139.0545    0.7193 O   0  0  0  0  0  0  0  0  0  0  0  0
   17.2124  138.4428    1.5625 C   0  0  0  0  0  0  0  0  0  0  0  0
   17.2932  139.0101    2.9928 C   0  0  0  0  0  0  0  0  0  0  0  0
   15.8010  138.6407    0.9777 C   0  0  0  0  0  0  0  0  0  0  0  0
   17.5241  136.9391    1.6073 C   0  0  0  0  0  0  0  0  0  0  0  0
   19.7192  139.6499   -1.6979 C   0  0  0  0  0  0  0  0  0  0  0  0
   20.3973  139.0670   -2.9271 C   0  0  0  0  0  0  0  0  0  0  0  0
   16.9485  137.7470   -5.1400 H   0  0  0  0  0  0  0  0  0  0  0  0
   16.3815  138.5796   -3.8547 H   0  0  0  0  0  0  0  0  0  0  0  0
   15.9903  139.0493   -5.3690 H   0  0  0  0  0  0  0  0  0  0  0  0
   16.9269  141.2019   -4.0639 H   0  0  0  0  0  0  0  0  0  0  0  0
   18.8340  142.6505   -4.1076 H   0  0  0  0  0  0  0  0  0  0  0  0
   20.9319  141.8370   -4.9008 H   0  0  0  0  0  0  0  0  0  0  0  0
   21.1500  139.5790   -5.6565 H   0  0  0  0  0  0  0  0  0  0  0  0
   18.2855  136.1533   -3.7372 H   0  0  0  0  0  0  0  0  0  0  0  0
   19.5149  135.4124   -2.9584 H   0  0  0  0  0  0  0  0  0  0  0  0
   19.3906  133.8403   -4.9835 H   0  0  0  0  0  0  0  0  0  0  0  0
   17.8436  134.3624   -5.0101 H   0  0  0  0  0  0  0  0  0  0  0  0
   19.3482  131.9091   -2.2823 H   0  0  0  0  0  0  0  0  0  0  0  0
   19.0616  133.2913   -1.4614 H   0  0  0  0  0  0  0  0  0  0  0  0
   21.0396  132.5182   -4.6253 H   0  0  0  0  0  0  0  0  0  0  0  0
   23.3636  135.0618   -2.4514 H   0  0  0  0  0  0  0  0  0  0  0  0
   20.2267  134.5398   -0.4218 H   0  0  0  0  0  0  0  0  0  0  0  0
   21.8137  134.5952   -0.0409 H   0  0  0  0  0  0  0  0  0  0  0  0
   21.1089  135.8639   -0.7895 H   0  0  0  0  0  0  0  0  0  0  0  0
   16.1558  134.5467   -4.1528 H   0  0  0  0  0  0  0  0  0  0  0  0
   13.8663  133.9057   -3.8485 H   0  0  0  0  0  0  0  0  0  0  0  0
   15.1014  130.5035   -1.8189 H   0  0  0  0  0  0  0  0  0  0  0  0
   17.3902  131.1487   -2.1239 H   0  0  0  0  0  0  0  0  0  0  0  0
   21.6696  137.5574   -4.5392 H   0  0  0  0  0  0  0  0  0  0  0  0
   21.8436  136.1645   -3.7048 H   0  0  0  0  0  0  0  0  0  0  0  0
   19.9100  137.1387   -2.3223 H   0  0  0  0  0  0  0  0  0  0  0  0
   22.7146  137.5561   -2.0872 H   0  0  0  0  0  0  0  0  0  0  0  0
   21.7431  136.6591   -1.1289 H   0  0  0  0  0  0  0  0  0  0  0  0
   22.0981  138.4211    0.2302 H   0  0  0  0  0  0  0  0  0  0  0  0
   22.2074  139.4747   -1.0126 H   0  0  0  0  0  0  0  0  0  0  0  0
   17.1326  139.9968    2.9696 H   0  0  0  0  0  0  0  0  0  0  0  0
   16.5989  138.5728    3.5645 H   0  0  0  0  0  0  0  0  0  0  0  0
   18.2003  138.8288    3.3725 H   0  0  0  0  0  0  0  0  0  0  0  0
   15.7547  138.2235    0.0701 H   0  0  0  0  0  0  0  0  0  0  0  0
   15.1279  138.2086    1.5779 H   0  0  0  0  0  0  0  0  0  0  0  0
   15.6041  139.6185    0.9056 H   0  0  0  0  0  0  0  0  0  0  0  0
   18.4413  136.7999    1.9806 H   0  0  0  0  0  0  0  0  0  0  0  0
   16.8541  136.4770    2.1882 H   0  0  0  0  0  0  0  0  0  0  0  0
   17.4800  136.5619    0.6823 H   0  0  0  0  0  0  0  0  0  0  0  0
   19.8849  140.6351   -1.6537 H   0  0  0  0  0  0  0  0  0  0  0  0
   18.7349  139.4789   -1.7397 H   0  0  0  0  0  0  0  0  0  0  0  0
   19.7838  139.1390   -3.7135 H   0  0  0  0  0  0  0  0  0  0  0  0
   21.2404  139.5708   -3.1148 H   0  0  0  0  0  0  0  0  0  0  0  0
  1  2  1  0  0  0  0
  2  3  2  0  0  0  0
  3  4  1  0  0  0  0
  4  5  2  0  0  0  0
  5  6  1  0  0  0  0
  6  7  2  0  0  0  0
  7  8  1  0  0  0  0
  8  9  2  0  0  0  0
  8 10  2  0  0  0  0
  8 11  1  0  0  0  0
 11 12  1  0  0  0  0
 12 13  1  0  0  0  0
 13 14  1  0  0  0  0
 14 15  1  0  0  0  0
 15 16  1  0  0  0  0
 16 17  2  0  0  0  0
 17 18  1  0  0  0  0
 18 19  2  0  0  0  0
 19 20  1  0  0  0  0
 20 21  1  0  0  0  0
 14 22  1  0  0  0  0
 22 23  2  0  0  0  0
 23 24  1  0  0  0  0
 24 25  2  0  0  0  0
 25 26  1  0  0  0  0
 26 27  3  0  0  0  0
 25 28  1  0  0  0  0
 28 29  2  0  0  0  0
 11 30  1  0  0  0  0
 30 31  1  0  0  0  0
 31 32  1  0  0  0  0
 32 33  1  0  0  0  0
 33 34  1  0  0  0  0
 34 35  1  0  0  0  0
 35 36  2  0  0  0  0
 35 37  1  0  0  0  0
 37 38  1  0  0  0  0
 38 39  1  0  0  0  0
 38 40  1  0  0  0  0
 38 41  1  0  0  0  0
 34 42  1  0  0  0  0
 42 43  1  0  0  0  0
  7  2  1  0  0  0  0
 20 16  1  0  0  0  0
 29 22  1  0  0  0  0
 43 31  1  0  0  0  0
  1 44  1  0  0  0  0
  1 45  1  0  0  0  0
  1 46  1  0  0  0  0
  3 47  1  0  0  0  0
  4 48  1  0  0  0  0
  5 49  1  0  0  0  0
  6 50  1  0  0  0  0
 12 51  1  0  0  0  0
 12 52  1  0  0  0  0
 13 53  1  0  0  0  0
 13 54  1  0  0  0  0
 15 55  1  0  0  0  0
 15 56  1  0  0  0  0
 17 57  1  0  0  0  0
 19 58  1  0  0  0  0
 21 59  1  0  0  0  0
 21 60  1  0  0  0  0
 21 61  1  0  0  0  0
 23 62  1  0  0  0  0
 24 63  1  0  0  0  0
 28 64  1  0  0  0  0
 29 65  1  0  0  0  0
 30 66  1  0  0  0  0
 30 67  1  0  0  0  0
 31 68  1  0  0  0  0
 32 69  1  0  0  0  0
 32 70  1  0  0  0  0
 33 71  1  0  0  0  0
 33 72  1  0  0  0  0
 39 73  1  0  0  0  0
 39 74  1  0  0  0  0
 39 75  1  0  0  0  0
 40 76  1  0  0  0  0
 40 77  1  0  0  0  0
 40 78  1  0  0  0  0
 41 79  1  0  0  0  0
 41 80  1  0  0  0  0
 41 81  1  0  0  0  0
 42 82  1  0  0  0  0
 42 83  1  0  0  0  0
 43 84  1  0  0  0  0
 43 85  1  0  0  0  0
M  END
>  <docking-score>
-18.39

$$$$
3E37_ED5_2
foFlexX   03192112203D 1   1.00000     0.00000     0
FlexX 4.5.0 fol007
 85 88  0  0  0  0            999 V2000
   18.2694  138.0032   -2.7842 C   0  0  0  0  0  0  0  0  0  0  0  0
   18.5580  139.1094   -3.7860 C   0  0  0  0  0  0  0  0  0  0  0  0
   18.1925  140.4103   -3.4552 C   0  0  0  0  0  0  0  0  0  0  0  0
   18.4456  141.4401   -4.3549 C   0  0  0  0  0  0  0  0  0  0  0  0
   19.0590  141.1642   -5.5725 C   0  0  0  0  0  0  0  0  0  0  0  0
   19.4249  139.8640   -5.9051 C   0  0  0  0  0  0  0  0  0  0  0  0
   19.1712  138.8338   -5.0048 C   0  0  0  0  0  0  0  0  0  0  0  0
   19.6466  137.1762   -5.4474 S   0  0  0  0  0  0  0  0  0  0  0  0
   20.5921  137.2162   -6.6161 O   0  0  0  0  0  0  0  0  0  0  0  0
   18.4097  136.4596   -5.9115 O   0  0  0  0  0  0  0  0  0  0  0  0
   20.3300  136.2403   -4.1246 N   0  0  0  0  0  0  0  0  0  0  0  0
   19.3519  135.4174   -3.3845 C   0  0  0  0  0  0  0  0  0  0  0  0
   18.8023  134.2176   -4.1789 C   0  0  0  0  0  0  0  0  0  0  0  0
   18.4598  133.1217   -3.2658 N   0  0  0  0  0  0  0  0  0  0  0  0
   19.4760  132.5071   -2.4034 C   0  0  0  0  0  0  0  0  0  0  0  0
   20.8600  133.0209   -2.7686 C   0  0  0  0  0  0  0  0  0  0  0  0
   21.4613  132.8984   -3.9868 C   0  0  0  0  0  0  0  0  0  0  0  0
   22.6842  133.4931   -3.8877 N   0  0  0  0  0  0  0  0  0  0  0  0
   22.8277  133.9587   -2.6654 C   0  0  0  0  0  0  0  0  0  0  0  0
   21.7079  133.6884   -1.9421 N   0  0  0  0  0  0  0  0  0  0  0  0
   21.4628  134.0404   -0.5355 C   0  0  0  0  0  0  0  0  0  0  0  0
   17.0818  132.7689   -3.0832 C   0  0  0  0  0  0  0  0  0  0  0  0
   16.7367  131.8532   -2.0943 C   0  0  0  0  0  0  0  0  0  0  0  0
   15.4042  131.5017   -1.9067 C   0  0  0  0  0  0  0  0  0  0  0  0
   14.4306  132.0762   -2.7162 C   0  0  0  0  0  0  0  0  0  0  0  0
   12.9705  131.7018   -2.5207 C   0  0  0  0  0  0  0  0  0  0  0  0
   11.8588  131.4173   -2.3713 N   0  0  0  0  0  0  0  0  0  0  0  0
   14.7705  132.9927   -3.7061 C   0  0  0  0  0  0  0  0  0  0  0  0
   16.1045  133.3414   -3.8910 C   0  0  0  0  0  0  0  0  0  0  0  0
   21.2700  136.9983   -3.2767 C   0  0  0  0  0  0  0  0  0  0  0  0
   21.2518  136.4705   -1.8270 C   0  0  0  0  0  0  0  0  0  0  0  0
   22.6322  136.6901   -1.2187 C   0  0  0  0  0  0  0  0  0  0  0  0
   22.5864  137.4081    0.1241 C   0  0  0  0  0  0  0  0  0  0  0  0
   21.4651  136.9591    0.9667 N   0  0  0  0  0  0  0  0  0  0  0  0
   21.5496  136.9377    2.3651 C   0  0  0  0  0  0  0  0  0  0  0  0
   22.6629  136.7476    2.9259 O   0  0  0  0  0  0  0  0  0  0  0  0
   20.3906  137.1312    3.1352 O   0  0  0  0  0  0  0  0  0  0  0  0
   20.1698  136.6695    4.4762 C   0  0  0  0  0  0  0  0  0  0  0  0
   21.4456  136.8342    5.3242 C   0  0  0  0  0  0  0  0  0  0  0  0
   18.9878  137.4184    5.1208 C   0  0  0  0  0  0  0  0  0  0  0  0
   19.8219  135.1756    4.3891 C   0  0  0  0  0  0  0  0  0  0  0  0
   20.2049  136.5089    0.3611 C   0  0  0  0  0  0  0  0  0  0  0  0
   20.1286  137.1174   -1.0292 C   0  0  0  0  0  0  0  0  0  0  0  0
   18.5833  137.1286   -3.1537 H   0  0  0  0  0  0  0  0  0  0  0  0
   18.7497  138.1950   -1.9283 H   0  0  0  0  0  0  0  0  0  0  0  0
   17.2855  137.9583   -2.6114 H   0  0  0  0  0  0  0  0  0  0  0  0
   17.7518  140.6032   -2.5785 H   0  0  0  0  0  0  0  0  0  0  0  0
   18.1868  142.3786   -4.1265 H   0  0  0  0  0  0  0  0  0  0  0  0
   19.2387  141.9086   -6.2157 H   0  0  0  0  0  0  0  0  0  0  0  0
   19.8657  139.6717   -6.7819 H   0  0  0  0  0  0  0  0  0  0  0  0
   18.5822  136.0016   -3.1273 H   0  0  0  0  0  0  0  0  0  0  0  0
   19.7965  135.0692   -2.5592 H   0  0  0  0  0  0  0  0  0  0  0  0
   19.4968  133.9037   -4.8263 H   0  0  0  0  0  0  0  0  0  0  0  0
   17.9835  134.4994   -4.6790 H   0  0  0  0  0  0  0  0  0  0  0  0
   19.4512  131.5143   -2.5205 H   0  0  0  0  0  0  0  0  0  0  0  0
   19.2806  132.7352   -1.4495 H   0  0  0  0  0  0  0  0  0  0  0  0
   21.0782  132.4567   -4.7980 H   0  0  0  0  0  0  0  0  0  0  0  0
   23.6354  134.4375   -2.3213 H   0  0  0  0  0  0  0  0  0  0  0  0
   20.5590  133.7112   -0.2621 H   0  0  0  0  0  0  0  0  0  0  0  0
   22.1608  133.6155    0.0409 H   0  0  0  0  0  0  0  0  0  0  0  0
   21.5020  135.0339   -0.4288 H   0  0  0  0  0  0  0  0  0  0  0  0
   17.4467  131.4478   -1.5184 H   0  0  0  0  0  0  0  0  0  0  0  0
   15.1494  130.8436   -1.1981 H   0  0  0  0  0  0  0  0  0  0  0  0
   14.0602  133.3985   -4.2813 H   0  0  0  0  0  0  0  0  0  0  0  0
   16.3592  133.9992   -4.5998 H   0  0  0  0  0  0  0  0  0  0  0  0
   21.0067  137.9630   -3.2773 H   0  0  0  0  0  0  0  0  0  0  0  0
   22.1940  136.9048   -3.6476 H   0  0  0  0  0  0  0  0  0  0  0  0
   21.0810  135.4857   -1.8587 H   0  0  0  0  0  0  0  0  0  0  0  0
   23.1765  137.2378   -1.8540 H   0  0  0  0  0  0  0  0  0  0  0  0
   23.0680  135.7994   -1.0886 H   0  0  0  0  0  0  0  0  0  0  0  0
   23.4427  137.2336    0.6103 H   0  0  0  0  0  0  0  0  0  0  0  0
   22.4907  138.3898   -0.0405 H   0  0  0  0  0  0  0  0  0  0  0  0
   21.7046  137.7996    5.3527 H   0  0  0  0  0  0  0  0  0  0  0  0
   21.2727  136.5078    6.2535 H   0  0  0  0  0  0  0  0  0  0  0  0
   22.1877  136.3019    4.9167 H   0  0  0  0  0  0  0  0  0  0  0  0
   18.1596  137.2595    4.5833 H   0  0  0  0  0  0  0  0  0  0  0  0
   18.8496  137.0837    6.0529 H   0  0  0  0  0  0  0  0  0  0  0  0
   19.1870  138.3981    5.1445 H   0  0  0  0  0  0  0  0  0  0  0  0
   20.5812  134.6806    3.9666 H   0  0  0  0  0  0  0  0  0  0  0  0
   19.6605  134.8168    5.3084 H   0  0  0  0  0  0  0  0  0  0  0  0
   18.9976  135.0571    3.8355 H   0  0  0  0  0  0  0  0  0  0  0  0
   19.4304  136.8182    0.9129 H   0  0  0  0  0  0  0  0  0  0  0  0
   20.1925  135.5109    0.2989 H   0  0  0  0  0  0  0  0  0  0  0  0
   19.2433  136.9172   -1.4489 H   0  0  0  0  0  0  0  0  0  0  0  0
   20.2595  138.1077   -0.9836 H   0  0  0  0  0  0  0  0  0  0  0  0
  1  2  1  0  0  0  0
  2  3  2  0  0  0  0
  3  4  1  0  0  0  0
  4  5  2  0  0  0  0
  5  6  1  0  0  0  0
  6  7  2  0  0  0  0
  7  8  1  0  0  0  0
  8  9  2  0  0  0  0
  8 10  2  0  0  0  0
  8 11  1  0  0  0  0
 11 12  1  0  0  0  0
 12 13  1  0  0  0  0
 13 14  1  0  0  0  0
 14 15  1  0  0  0  0
 15 16  1  0  0  0  0
 16 17  2  0  0  0  0
 17 18  1  0  0  0  0
 18 19  2  0  0  0  0
 19 20  1  0  0  0  0
 20 21  1  0  0  0  0
 14 22  1  0  0  0  0
 22 23  2  0  0  0  0
 23 24  1  0  0  0  0
 24 25  2  0  0  0  0
 25 26  1  0  0  0  0
 26 27  3  0  0  0  0
 25 28  1  0  0  0  0
 28 29  2  0  0  0  0
 11 30  1  0  0  0  0
 30 31  1  0  0  0  0
 31 32  1  0  0  0  0
 32 33  1  0  0  0  0
 33 34  1  0  0  0  0
 34 35  1  0  0  0  0
 35 36  2  0  0  0  0
 35 37  1  0  0  0  0
 37 38  1  0  0  0  0
 38 39  1  0  0  0  0
 38 40  1  0  0  0  0
 38 41  1  0  0  0  0
 34 42  1  0  0  0  0
 42 43  1  0  0  0  0
  7  2  1  0  0  0  0
 20 16  1  0  0  0  0
 29 22  1  0  0  0  0
 43 31  1  0  0  0  0
  1 44  1  0  0  0  0
  1 45  1  0  0  0  0
  1 46  1  0  0  0  0
  3 47  1  0  0  0  0
  4 48  1  0  0  0  0
  5 49  1  0  0  0  0
  6 50  1  0  0  0  0
 12 51  1  0  0  0  0
 12 52  1  0  0  0  0
 13 53  1  0  0  0  0
 13 54  1  0  0  0  0
 15 55  1  0  0  0  0
 15 56  1  0  0  0  0
 17 57  1  0  0  0  0
 19 58  1  0  0  0  0
 21 59  1  0  0  0  0
 21 60  1  0  0  0  0
 21 61  1  0  0  0  0
 23 62  1  0  0  0  0
 24 63  1  0  0  0  0
 28 64  1  0  0  0  0
 29 65  1  0  0  0  0
 30 66  1  0  0  0  0
 30 67  1  0  0  0  0
 31 68  1  0  0  0  0
 32 69  1  0  0  0  0
 32 70  1  0  0  0  0
 33 71  1  0  0  0  0
 33 72  1  0  0  0  0
 39 73  1  0  0  0  0
 39 74  1  0  0  0  0
 39 75  1  0  0  0  0
 40 76  1  0  0  0  0
 40 77  1  0  0  0  0
 40 78  1  0  0  0  0
 41 79  1  0  0  0  0
 41 80  1  0  0  0  0
 41 81  1  0  0  0  0
 42 82  1  0  0  0  0
 42 83  1  0  0  0  0
 43 84  1  0  0  0  0
 43 85  1  0  0  0  0
M  END
>  <docking-score>
-17.61

$$$$
3E37_ED5_3
foFlexX   03192112203D 1   1.00000     0.00000     0
FlexX 4.5.0 fol007
 85 88  0  0  0  0            999 V2000
   18.2694  138.0032   -2.7842 C   0  0  0  0  0  0  0  0  0  0  0  0
   18.5580  139.1094   -3.7860 C   0  0  0  0  0  0  0  0  0  0  0  0
   18.1925  140.4103   -3.4552 C   0  0  0  0  0  0  0  0  0  0  0  0
   18.4456  141.4401   -4.3549 C   0  0  0  0  0  0  0  0  0  0  0  0
   19.0590  141.1642   -5.5725 C   0  0  0  0  0  0  0  0  0  0  0  0
   19.4249  139.8640   -5.9051 C   0  0  0  0  0  0  0  0  0  0  0  0
   19.1712  138.8338   -5.0048 C   0  0  0  0  0  0  0  0  0  0  0  0
   19.6466  137.1762   -5.4474 S   0  0  0  0  0  0  0  0  0  0  0  0
   20.5921  137.2162   -6.6161 O   0  0  0  0  0  0  0  0  0  0  0  0
   18.4097  136.4596   -5.9115 O   0  0  0  0  0  0  0  0  0  0  0  0
   20.3300  136.2403   -4.1246 N   0  0  0  0  0  0  0  0  0  0  0  0
   19.3519  135.4174   -3.3845 C   0  0  0  0  0  0  0  0  0  0  0  0
   18.8023  134.2176   -4.1789 C   0  0  0  0  0  0  0  0  0  0  0  0
   18.4598  133.1217   -3.2658 N   0  0  0  0  0  0  0  0  0  0  0  0
   19.4760  132.5071   -2.4034 C   0  0  0  0  0  0  0  0  0  0  0  0
   20.8600  133.0209   -2.7686 C   0  0  0  0  0  0  0  0  0  0  0  0
   21.4613  132.8984   -3.9868 C   0  0  0  0  0  0  0  0  0  0  0  0
   22.6842  133.4931   -3.8877 N   0  0  0  0  0  0  0  0  0  0  0  0
   22.8277  133.9587   -2.6654 C   0  0  0  0  0  0  0  0  0  0  0  0
   21.7079  133.6884   -1.9421 N   0  0  0  0  0  0  0  0  0  0  0  0
   21.4628  134.0404   -0.5355 C   0  0  0  0  0  0  0  0  0  0  0  0
   17.0818  132.7689   -3.0832 C   0  0  0  0  0  0  0  0  0  0  0  0
   16.7367  131.8532   -2.0943 C   0  0  0  0  0  0  0  0  0  0  0  0
   15.4042  131.5017   -1.9067 C   0  0  0  0  0  0  0  0  0  0  0  0
   14.4306  132.0762   -2.7162 C   0  0  0  0  0  0  0  0  0  0  0  0
   12.9705  131.7018   -2.5207 C   0  0  0  0  0  0  0  0  0  0  0  0
   11.8588  131.4173   -2.3713 N   0  0  0  0  0  0  0  0  0  0  0  0
   14.7705  132.9927   -3.7061 C   0  0  0  0  0  0  0  0  0  0  0  0
   16.1045  133.3414   -3.8910 C   0  0  0  0  0  0  0  0  0  0  0  0
   21.2700  136.9983   -3.2767 C   0  0  0  0  0  0  0  0  0  0  0  0
   21.2518  136.4705   -1.8270 C   0  0  0  0  0  0  0  0  0  0  0  0
   20.2125  137.2038   -0.9908 C   0  0  0  0  0  0  0  0  0  0  0  0
   20.3709  136.6610    0.4191 C   0  0  0  0  0  0  0  0  0  0  0  0
   21.6715  137.1113    0.9360 N   0  0  0  0  0  0  0  0  0  0  0  0
   21.9046  137.1977    2.3140 C   0  0  0  0  0  0  0  0  0  0  0  0
   22.7121  138.0556    2.7636 O   0  0  0  0  0  0  0  0  0  0  0  0
   21.2337  136.3271    3.1890 O   0  0  0  0  0  0  0  0  0  0  0  0
   21.3596  136.2891    4.6183 C   0  0  0  0  0  0  0  0  0  0  0  0
   20.9493  137.6398    5.2356 C   0  0  0  0  0  0  0  0  0  0  0  0
   20.5156  135.1429    5.2076 C   0  0  0  0  0  0  0  0  0  0  0  0
   22.8400  136.0283    4.9356 C   0  0  0  0  0  0  0  0  0  0  0  0
   22.7334  137.4689   -0.0187 C   0  0  0  0  0  0  0  0  0  0  0  0
   22.6364  136.5064   -1.1965 C   0  0  0  0  0  0  0  0  0  0  0  0
   18.5833  137.1286   -3.1537 H   0  0  0  0  0  0  0  0  0  0  0  0
   18.7497  138.1950   -1.9283 H   0  0  0  0  0  0  0  0  0  0  0  0
   17.2855  137.9583   -2.6114 H   0  0  0  0  0  0  0  0  0  0  0  0
   17.7518  140.6032   -2.5785 H   0  0  0  0  0  0  0  0  0  0  0  0
   18.1868  142.3786   -4.1265 H   0  0  0  0  0  0  0  0  0  0  0  0
   19.2387  141.9086   -6.2157 H   0  0  0  0  0  0  0  0  0  0  0  0
   19.8657  139.6717   -6.7819 H   0  0  0  0  0  0  0  0  0  0  0  0
   18.5822  136.0016   -3.1273 H   0  0  0  0  0  0  0  0  0  0  0  0
   19.7965  135.0692   -2.5592 H   0  0  0  0  0  0  0  0  0  0  0  0
   19.4968  133.9037   -4.8263 H   0  0  0  0  0  0  0  0  0  0  0  0
   17.9835  134.4994   -4.6790 H   0  0  0  0  0  0  0  0  0  0  0  0
   19.4512  131.5143   -2.5205 H   0  0  0  0  0  0  0  0  0  0  0  0
   19.2806  132.7352   -1.4495 H   0  0  0  0  0  0  0  0  0  0  0  0
   21.0782  132.4567   -4.7980 H   0  0  0  0  0  0  0  0  0  0  0  0
   23.6354  134.4375   -2.3213 H   0  0  0  0  0  0  0  0  0  0  0  0
   20.5590  133.7112   -0.2621 H   0  0  0  0  0  0  0  0  0  0  0  0
   22.1608  133.6155    0.0409 H   0  0  0  0  0  0  0  0  0  0  0  0
   21.5020  135.0339   -0.4288 H   0  0  0  0  0  0  0  0  0  0  0  0
   17.4467  131.4478   -1.5184 H   0  0  0  0  0  0  0  0  0  0  0  0
   15.1494  130.8436   -1.1981 H   0  0  0  0  0  0  0  0  0  0  0  0
   14.0602  133.3985   -4.2813 H   0  0  0  0  0  0  0  0  0  0  0  0
   16.3592  133.9992   -4.5998 H   0  0  0  0  0  0  0  0  0  0  0  0
   21.0067  137.9630   -3.2773 H   0  0  0  0  0  0  0  0  0  0  0  0
   22.1940  136.9048   -3.6476 H   0  0  0  0  0  0  0  0  0  0  0  0
   20.9723  135.5111   -1.8674 H   0  0  0  0  0  0  0  0  0  0  0  0
   19.2922  137.0184   -1.3355 H   0  0  0  0  0  0  0  0  0  0  0  0
   20.3824  138.1891   -1.0072 H   0  0  0  0  0  0  0  0  0  0  0  0
   19.6357  137.0084    1.0011 H   0  0  0  0  0  0  0  0  0  0  0  0
   20.3395  135.6616    0.4035 H   0  0  0  0  0  0  0  0  0  0  0  0
   19.9982  137.8390    4.9996 H   0  0  0  0  0  0  0  0  0  0  0  0
   21.0434  137.5941    6.2302 H   0  0  0  0  0  0  0  0  0  0  0  0
   21.5400  138.3630    4.8778 H   0  0  0  0  0  0  0  0  0  0  0  0
   20.8290  134.2708    4.8318 H   0  0  0  0  0  0  0  0  0  0  0  0
   20.6159  135.1325    6.2025 H   0  0  0  0  0  0  0  0  0  0  0  0
   19.5539  135.2814    4.9710 H   0  0  0  0  0  0  0  0  0  0  0  0
   23.3977  136.7646    4.5522 H   0  0  0  0  0  0  0  0  0  0  0  0
   22.9677  135.9950    5.9268 H   0  0  0  0  0  0  0  0  0  0  0  0
   23.1183  135.1558    4.5341 H   0  0  0  0  0  0  0  0  0  0  0  0
   23.6285  137.3834    0.4189 H   0  0  0  0  0  0  0  0  0  0  0  0
   22.6054  138.4090   -0.3349 H   0  0  0  0  0  0  0  0  0  0  0  0
   23.2959  136.7887   -1.8932 H   0  0  0  0  0  0  0  0  0  0  0  0
   22.8636  135.5870   -0.8755 H   0  0  0  0  0  0  0  0  0  0  0  0
  1  2  1  0  0  0  0
  2  3  2  0  0  0  0
  3  4  1  0  0  0  0
  4  5  2  0  0  0  0
  5  6  1  0  0  0  0
  6  7  2  0  0  0  0
  7  8  1  0  0  0  0
  8  9  2  0  0  0  0
  8 10  2  0  0  0  0
  8 11  1  0  0  0  0
 11 12  1  0  0  0  0
 12 13  1  0  0  0  0
 13 14  1  0  0  0  0
 14 15  1  0  0  0  0
 15 16  1  0  0  0  0
 16 17  2  0  0  0  0
 17 18  1  0  0  0  0
 18 19  2  0  0  0  0
 19 20  1  0  0  0  0
 20 21  1  0  0  0  0
 14 22  1  0  0  0  0
 22 23  2  0  0  0  0
 23 24  1  0  0  0  0
 24 25  2  0  0  0  0
 25 26  1  0  0  0  0
 26 27  3  0  0  0  0
 25 28  1  0  0  0  0
 28 29  2  0  0  0  0
 11 30  1  0  0  0  0
 30 31  1  0  0  0  0
 31 32  1  0  0  0  0
 32 33  1  0  0  0  0
 33 34  1  0  0  0  0
 34 35  1  0  0  0  0
 35 36  2  0  0  0  0
 35 37  1  0  0  0  0
 37 38  1  0  0  0  0
 38 39  1  0  0  0  0
 38 40  1  0  0  0  0
 38 41  1  0  0  0  0
 34 42  1  0  0  0  0
 42 43  1  0  0  0  0
  7  2  1  0  0  0  0
 20 16  1  0  0  0  0
 29 22  1  0  0  0  0
 43 31  1  0  0  0  0
  1 44  1  0  0  0  0
  1 45  1  0  0  0  0
  1 46  1  0  0  0  0
  3 47  1  0  0  0  0
  4 48  1  0  0  0  0
  5 49  1  0  0  0  0
  6 50  1  0  0  0  0
 12 51  1  0  0  0  0
 12 52  1  0  0  0  0
 13 53  1  0  0  0  0
 13 54  1  0  0  0  0
 15 55  1  0  0  0  0
 15 56  1  0  0  0  0
 17 57  1  0  0  0  0
 19 58  1  0  0  0  0
 21 59  1  0  0  0  0
 21 60  1  0  0  0  0
 21 61  1  0  0  0  0
 23 62  1  0  0  0  0
 24 63  1  0  0  0  0
 28 64  1  0  0  0  0
 29 65  1  0  0  0  0
 30 66  1  0  0  0  0
 30 67  1  0  0  0  0
 31 68  1  0  0  0  0
 32 69  1  0  0  0  0
 32 70  1  0  0  0  0
 33 71  1  0  0  0  0
 33 72  1  0  0  0  0
 39 73  1  0  0  0  0
 39 74  1  0  0  0  0
 39 75  1  0  0  0  0
 40 76  1  0  0  0  0
 40 77  1  0  0  0  0
 40 78  1  0  0  0  0
 41 79  1  0  0  0  0
 41 80  1  0  0  0  0
 41 81  1  0  0  0  0
 42 82  1  0  0  0  0
 42 83  1  0  0  0  0
 43 84  1  0  0  0  0
 43 85  1  0  0  0  0
M  END
>  <docking-score>
-16.78

$$$$
2IEJ_S48_1
foFlexX   03192112203D 1   1.00000     0.00000     0
FlexX 4.5.0 fol007
 68 72  0  0  0  0            999 V2000
   17.1905  134.4000   -8.0297 C   0  0  0  0  0  0  0  0  0  0  0  0
   15.8288  134.7987   -7.9339 O   0  0  0  0  0  0  0  0  0  0  0  0
   15.2274  135.6513   -8.8639 C   0  0  0  0  0  0  0  0  0  0  0  0
   15.7275  135.8093  -10.0111 O   0  0  0  0  0  0  0  0  0  0  0  0
   13.9619  136.3628   -8.5032 C   0  0  0  0  0  0  0  0  0  0  0  0
   14.1866  137.2480   -7.3439 N   0  0  0  0  0  0  0  0  0  0  0  0
   14.6425  136.5253   -6.1470 C   0  0  1  0  0  0  0  0  0  0  0  0
   14.4729  137.3859   -4.9039 C   0  0  0  0  0  0  0  0  0  0  0  0
   14.6725  136.6126   -3.6145 C   0  0  0  0  0  0  0  0  0  0  0  0
   14.9186  137.3376   -2.4543 C   0  0  0  0  0  0  0  0  0  0  0  0
   15.0741  136.6657   -1.2466 C   0  0  0  0  0  0  0  0  0  0  0  0
   15.3320  137.4051   -0.0267 C   0  0  0  0  0  0  0  0  0  0  0  0
   14.8312  138.6952    0.1099 C   0  0  0  0  0  0  0  0  0  0  0  0
   15.0827  139.3993    1.2827 C   0  0  0  0  0  0  0  0  0  0  0  0
   15.8251  138.8208    2.3060 C   0  0  0  0  0  0  0  0  0  0  0  0
   16.3225  137.5297    2.1604 C   0  0  0  0  0  0  0  0  0  0  0  0
   16.0763  136.8175    0.9912 C   0  0  0  0  0  0  0  0  0  0  0  0
   14.9841  135.2791   -1.2048 C   0  0  0  0  0  0  0  0  0  0  0  0
   14.7457  134.5829   -2.3839 C   0  0  0  0  0  0  0  0  0  0  0  0
   14.5859  135.2231   -3.6150 C   0  0  0  0  0  0  0  0  0  0  0  0
   14.3484  134.5095   -4.7977 N   0  0  0  0  0  0  0  0  0  0  0  0
   14.6308  133.0793   -4.9282 C   0  0  0  0  0  0  0  0  0  0  0  0
   13.8461  132.2646   -3.9392 C   0  0  0  0  0  0  0  0  0  0  0  0
   12.4860  132.2042   -3.8553 C   0  0  0  0  0  0  0  0  0  0  0  0
   12.1887  131.3541   -2.8317 N   0  0  0  0  0  0  0  0  0  0  0  0
   13.3137  130.9132   -2.3107 C   0  0  0  0  0  0  0  0  0  0  0  0
   14.3669  131.4545   -2.9801 N   0  0  0  0  0  0  0  0  0  0  0  0
   15.7937  131.2184   -2.7139 C   0  0  0  0  0  0  0  0  0  0  0  0
   13.8782  135.2196   -6.0028 C   0  0  0  0  0  0  0  0  0  0  0  0
   15.1956  138.6077   -7.8030 S   0  0  0  0  0  0  0  0  0  0  0  0
   14.8618  139.8015   -6.9509 O   0  0  0  0  0  0  0  0  0  0  0  0
   15.0072  138.9601   -9.2522 O   0  0  0  0  0  0  0  0  0  0  0  0
   16.8744  138.1733   -7.5509 C   0  0  0  0  0  0  0  0  0  0  0  0
   17.4220  137.8152   -6.3573 C   0  0  0  0  0  0  0  0  0  0  0  0
   18.7325  137.5655   -6.6175 N   0  0  0  0  0  0  0  0  0  0  0  0
   19.7399  137.1412   -5.6349 C   0  0  0  0  0  0  0  0  0  0  0  0
   18.9541  137.7725   -7.9443 C   0  0  0  0  0  0  0  0  0  0  0  0
   17.8333  138.1409   -8.5195 N   0  0  0  0  0  0  0  0  0  0  0  0
   17.7778  135.2087   -7.9956 H   0  0  0  0  0  0  0  0  0  0  0  0
   17.4145  133.7930   -7.2672 H   0  0  0  0  0  0  0  0  0  0  0  0
   17.3368  133.9180   -8.8936 H   0  0  0  0  0  0  0  0  0  0  0  0
   13.2588  135.6899   -8.2734 H   0  0  0  0  0  0  0  0  0  0  0  0
   13.6574  136.9104   -9.2826 H   0  0  0  0  0  0  0  0  0  0  0  0
   15.6138  136.3135   -6.2556 H   0  0  0  0  0  0  0  0  0  0  0  0
   15.1420  138.1284   -4.9368 H   0  0  0  0  0  0  0  0  0  0  0  0
   13.5493  137.7693   -4.9055 H   0  0  0  0  0  0  0  0  0  0  0  0
   14.9832  138.3350   -2.4878 H   0  0  0  0  0  0  0  0  0  0  0  0
   14.2970  139.1115   -0.6258 H   0  0  0  0  0  0  0  0  0  0  0  0
   14.7271  140.3277    1.3907 H   0  0  0  0  0  0  0  0  0  0  0  0
   16.0017  139.3328    3.1467 H   0  0  0  0  0  0  0  0  0  0  0  0
   16.8569  137.1136    2.8961 H   0  0  0  0  0  0  0  0  0  0  0  0
   16.4320  135.8892    0.8831 H   0  0  0  0  0  0  0  0  0  0  0  0
   15.0892  134.7898   -0.3390 H   0  0  0  0  0  0  0  0  0  0  0  0
   14.6864  133.5852   -2.3496 H   0  0  0  0  0  0  0  0  0  0  0  0
   15.6066  132.9263   -4.7721 H   0  0  0  0  0  0  0  0  0  0  0  0
   14.3909  132.7848   -5.8532 H   0  0  0  0  0  0  0  0  0  0  0  0
   11.8317  132.6907   -4.4342 H   0  0  0  0  0  0  0  0  0  0  0  0
   13.3837  130.2782   -1.5414 H   0  0  0  0  0  0  0  0  0  0  0  0
   16.3452  131.7520   -3.3550 H   0  0  0  0  0  0  0  0  0  0  0  0
   16.0086  131.4964   -1.7776 H   0  0  0  0  0  0  0  0  0  0  0  0
   15.9976  130.2460   -2.8279 H   0  0  0  0  0  0  0  0  0  0  0  0
   12.9007  135.4125   -5.9167 H   0  0  0  0  0  0  0  0  0  0  0  0
   14.0357  134.6496   -6.8091 H   0  0  0  0  0  0  0  0  0  0  0  0
   16.9576  137.7496   -5.4741 H   0  0  0  0  0  0  0  0  0  0  0  0
   20.6224  137.0259   -6.0909 H   0  0  0  0  0  0  0  0  0  0  0  0
   19.8221  137.8361   -4.9205 H   0  0  0  0  0  0  0  0  0  0  0  0
   19.4606  136.2730   -5.2248 H   0  0  0  0  0  0  0  0  0  0  0  0
   19.8330  137.6613   -8.4081 H   0  0  0  0  0  0  0  0  0  0  0  0
  1  2  1  0  0  0  0
  2  3  1  0  0  0  0
  3  4  2  0  0  0  0
  3  5  1  0  0  0  0
  5  6  1  0  0  0  0
  6  7  1  0  0  0  0
  7  8  1  0  0  0  0
  8  9  1  0  0  0  0
  9 10  2  0  0  0  0
 10 11  1  0  0  0  0
 11 12  1  0  0  0  0
 12 13  2  0  0  0  0
 13 14  1  0  0  0  0
 14 15  2  0  0  0  0
 15 16  1  0  0  0  0
 16 17  2  0  0  0  0
 11 18  2  0  0  0  0
 18 19  1  0  0  0  0
 19 20  2  0  0  0  0
 20 21  1  0  0  0  0
 21 22  1  0  0  0  0
 22 23  1  0  0  0  0
 23 24  2  0  0  0  0
 24 25  1  0  0  0  0
 25 26  2  0  0  0  0
 26 27  1  0  0  0  0
 27 28  1  0  0  0  0
 21 29  1  0  0  0  0
  6 30  1  0  0  0  0
 30 31  2  0  0  0  0
 30 32  2  0  0  0  0
 30 33  1  0  0  0  0
 33 34  2  0  0  0  0
 34 35  1  0  0  0  0
 35 36  1  0  0  0  0
 35 37  1  0  0  0  0
 37 38  2  0  0  0  0
 29  7  1  0  0  0  0
 38 33  1  0  0  0  0
 20  9  1  0  0  0  0
 27 23  1  0  0  0  0
 17 12  1  0  0  0  0
  1 39  1  0  0  0  0
  1 40  1  0  0  0  0
  1 41  1  0  0  0  0
  5 42  1  0  0  0  0
  5 43  1  0  0  0  0
  7 44  1  0  0  0  0
  8 45  1  0  0  0  0
  8 46  1  0  0  0  0
 10 47  1  0  0  0  0
 13 48  1  0  0  0  0
 14 49  1  0  0  0  0
 15 50  1  0  0  0  0
 16 51  1  0  0  0  0
 17 52  1  0  0  0  0
 18 53  1  0  0  0  0
 19 54  1  0  0  0  0
 22 55  1  0  0  0  0
 22 56  1  0  0  0  0
 24 57  1  0  0  0  0
 26 58  1  0  0  0  0
 28 59  1  0  0  0  0
 28 60  1  0  0  0  0
 28 61  1  0  0  0  0
 29 62  1  0  0  0  0
 29 63  1  0  0  0  0
 34 64  1  0  0  0  0
 36 65  1  0  0  0  0
 36 66  1  0  0  0  0
 36 67  1  0  0  0  0
 37 68  1  0  0  0  0
M  END
>  <docking-score>
-22.81

$$$$
2IEJ_S48_2
foFlexX   03192112203D 1   1.00000     0.00000     0
FlexX 4.5.0 fol007
 68 72  0  0  0  0            999 V2000
   15.7610  132.8611   -9.2735 C   0  0  0  0  0  0  0  0  0  0  0  0
   14.8635  133.8281   -8.7427 O   0  0  0  0  0  0  0  0  0  0  0  0
   15.1524  135.1956   -8.7299 C   0  0  0  0  0  0  0  0  0  0  0  0
   16.3411  135.6042   -8.8358 O   0  0  0  0  0  0  0  0  0  0  0  0
   14.0363  136.1852   -8.6165 C   0  0  0  0  0  0  0  0  0  0  0  0
   14.2225  137.0299   -7.4208 N   0  0  0  0  0  0  0  0  0  0  0  0
   14.7171  136.2795   -6.2567 C   0  0  1  0  0  0  0  0  0  0  0  0
   14.5110  137.0770   -4.9775 C   0  0  0  0  0  0  0  0  0  0  0  0
   14.7525  136.2598   -3.7229 C   0  0  0  0  0  0  0  0  0  0  0  0
   14.9677  136.9457   -2.5331 C   0  0  0  0  0  0  0  0  0  0  0  0
   15.1599  136.2310   -1.3556 C   0  0  0  0  0  0  0  0  0  0  0  0
   15.3865  136.9292   -0.1055 C   0  0  0  0  0  0  0  0  0  0  0  0
   14.8247  138.1867    0.0871 C   0  0  0  0  0  0  0  0  0  0  0  0
   15.0464  138.8513    1.2886 C   0  0  0  0  0  0  0  0  0  0  0  0
   15.8197  138.2661    2.2849 C   0  0  0  0  0  0  0  0  0  0  0  0
   16.3781  137.0079    2.0832 C   0  0  0  0  0  0  0  0  0  0  0  0
   16.1620  136.3353    0.8850 C   0  0  0  0  0  0  0  0  0  0  0  0
   15.1369  134.8412   -1.3730 C   0  0  0  0  0  0  0  0  0  0  0  0
   14.9278  134.1853   -2.5805 C   0  0  0  0  0  0  0  0  0  0  0  0
   14.7328  134.8690   -3.7828 C   0  0  0  0  0  0  0  0  0  0  0  0
   14.5254  134.1961   -4.9945 N   0  0  0  0  0  0  0  0  0  0  0  0
   14.8758  132.7880   -5.1866 C   0  0  0  0  0  0  0  0  0  0  0  0
   16.3428  132.5451   -4.9711 C   0  0  0  0  0  0  0  0  0  0  0  0
   16.9021  131.3862   -4.5188 C   0  0  0  0  0  0  0  0  0  0  0  0
   18.2497  131.5878   -4.4710 N   0  0  0  0  0  0  0  0  0  0  0  0
   18.5062  132.8137   -4.8746 C   0  0  0  0  0  0  0  0  0  0  0  0
   17.3422  133.4374   -5.2006 N   0  0  0  0  0  0  0  0  0  0  0  0
   17.1903  134.8135   -5.6964 C   0  0  0  0  0  0  0  0  0  0  0  0
   14.0171  134.9335   -6.1672 C   0  0  0  0  0  0  0  0  0  0  0  0
   15.1632  138.4550   -7.8229 S   0  0  0  0  0  0  0  0  0  0  0  0
   14.7755  139.5938   -6.9198 O   0  0  0  0  0  0  0  0  0  0  0  0
   14.9526  138.8595   -9.2553 O   0  0  0  0  0  0  0  0  0  0  0  0
   16.8618  138.0917   -7.5925 C   0  0  0  0  0  0  0  0  0  0  0  0
   17.4306  137.7097   -6.4162 C   0  0  0  0  0  0  0  0  0  0  0  0
   18.7505  137.5349   -6.6891 N   0  0  0  0  0  0  0  0  0  0  0  0
   19.7809  137.1181   -5.7273 C   0  0  0  0  0  0  0  0  0  0  0  0
   18.9570  137.8088   -8.0062 C   0  0  0  0  0  0  0  0  0  0  0  0
   17.8176  138.1470   -8.5632 N   0  0  0  0  0  0  0  0  0  0  0  0
   16.6247  132.8966   -8.7708 H   0  0  0  0  0  0  0  0  0  0  0  0
   15.3601  131.9494   -9.1834 H   0  0  0  0  0  0  0  0  0  0  0  0
   15.9292  133.0573  -10.2395 H   0  0  0  0  0  0  0  0  0  0  0  0
   13.1673  135.6958   -8.5430 H   0  0  0  0  0  0  0  0  0  0  0  0
   14.0247  136.7646   -9.4315 H   0  0  0  0  0  0  0  0  0  0  0  0
   15.6970  136.1196   -6.3759 H   0  0  0  0  0  0  0  0  0  0  0  0
   15.1434  137.8516   -4.9798 H   0  0  0  0  0  0  0  0  0  0  0  0
   13.5700  137.4151   -4.9612 H   0  0  0  0  0  0  0  0  0  0  0  0
   14.9841  137.9455   -2.5239 H   0  0  0  0  0  0  0  0  0  0  0  0
   14.2683  138.6078   -0.6292 H   0  0  0  0  0  0  0  0  0  0  0  0
   14.6470  139.7560    1.4368 H   0  0  0  0  0  0  0  0  0  0  0  0
   15.9746  138.7496    3.1464 H   0  0  0  0  0  0  0  0  0  0  0  0
   16.9346  136.5871    2.7996 H   0  0  0  0  0  0  0  0  0  0  0  0
   16.5616  135.4307    0.7366 H   0  0  0  0  0  0  0  0  0  0  0  0
   15.2687  134.3210   -0.5292 H   0  0  0  0  0  0  0  0  0  0  0  0
   14.9167  133.1854   -2.5889 H   0  0  0  0  0  0  0  0  0  0  0  0
   14.6366  132.5191   -6.1196 H   0  0  0  0  0  0  0  0  0  0  0  0
   14.3567  132.2334   -4.5364 H   0  0  0  0  0  0  0  0  0  0  0  0
   16.4164  130.5484   -4.2698 H   0  0  0  0  0  0  0  0  0  0  0  0
   19.4165  133.2236   -4.9326 H   0  0  0  0  0  0  0  0  0  0  0  0
   16.2210  135.0087   -5.8462 H   0  0  0  0  0  0  0  0  0  0  0  0
   17.5589  135.4533   -5.0222 H   0  0  0  0  0  0  0  0  0  0  0  0
   17.6876  134.9141   -6.5581 H   0  0  0  0  0  0  0  0  0  0  0  0
   13.0318  135.0752   -6.0713 H   0  0  0  0  0  0  0  0  0  0  0  0
   14.1988  134.4067   -6.9976 H   0  0  0  0  0  0  0  0  0  0  0  0
   16.9731  137.5841   -5.5359 H   0  0  0  0  0  0  0  0  0  0  0  0
   20.6662  137.0651   -6.1893 H   0  0  0  0  0  0  0  0  0  0  0  0
   19.8322  137.7850   -4.9839 H   0  0  0  0  0  0  0  0  0  0  0  0
   19.5452  136.2207   -5.3543 H   0  0  0  0  0  0  0  0  0  0  0  0
   19.8385  137.7601   -8.4758 H   0  0  0  0  0  0  0  0  0  0  0  0
  1  2  1  0  0  0  0
  2  3  1  0  0  0  0
  3  4  2  0  0  0  0
  3  5  1  0  0  0  0
  5  6  1  0  0  0  0
  6  7  1  0  0  0  0
  7  8  1  0  0  0  0
  8  9  1  0  0  0  0
  9 10  2  0  0  0  0
 10 11  1  0  0  0  0
 11 12  1  0  0  0  0
 12 13  2  0  0  0  0
 13 14  1  0  0  0  0
 14 15  2  0  0  0  0
 15 16  1  0  0  0  0
 16 17  2  0  0  0  0
 11 18  2  0  0  0  0
 18 19  1  0  0  0  0
 19 20  2  0  0  0  0
 20 21  1  0  0  0  0
 21 22  1  0  0  0  0
 22 23  1  0  0  0  0
 23 24  2  0  0  0  0
 24 25  1  0  0  0  0
 25 26  2  0  0  0  0
 26 27  1  0  0  0  0
 27 28  1  0  0  0  0
 21 29  1  0  0  0  0
  6 30  1  0  0  0  0
 30 31  2  0  0  0  0
 30 32  2  0  0  0  0
 30 33  1  0  0  0  0
 33 34  2  0  0  0  0
 34 35  1  0  0  0  0
 35 36  1  0  0  0  0
 35 37  1  0  0  0  0
 37 38  2  0  0  0  0
 29  7  1  0  0  0  0
 38 33  1  0  0  0  0
 20  9  1  0  0  0  0
 27 23  1  0  0  0  0
 17 12  1  0  0  0  0
  1 39  1  0  0  0  0
  1 40  1  0  0  0  0
  1 41  1  0  0  0  0
  5 42  1  0  0  0  0
  5 43  1  0  0  0  0
  7 44  1  0  0  0  0
  8 45  1  0  0  0  0
  8 46  1  0  0  0  0
 10 47  1  0  0  0  0
 13 48  1  0  0  0  0
 14 49  1  0  0  0  0
 15 50  1  0  0  0  0
 16 51  1  0  0  0  0
 17 52  1  0  0  0  0
 18 53  1  0  0  0  0
 19 54  1  0  0  0  0
 22 55  1  0  0  0  0
 22 56  1  0  0  0  0
 24 57  1  0  0  0  0
 26 58  1  0  0  0  0
 28 59  1  0  0  0  0
 28 60  1  0  0  0  0
 28 61  1  0  0  0  0
 29 62  1  0  0  0  0
 29 63  1  0  0  0  0
 34 64  1  0  0  0  0
 36 65  1  0  0  0  0
 36 66  1  0  0  0  0
 36 67  1  0  0  0  0
 37 68  1  0  0  0  0
M  END
>  <docking-score>
-18.79

$$$$
2IEJ_S48_3
foFlexX   03192112203D 1   1.00000     0.00000     0
FlexX 4.5.0 fol007
 68 72  0  0  0  0            999 V2000
   17.5178  134.4340   -7.8392 C   0  0  0  0  0  0  0  0  0  0  0  0
   16.1233  134.6982   -7.7515 O   0  0  0  0  0  0  0  0  0  0  0  0
   15.4488  135.4958   -8.6802 C   0  0  0  0  0  0  0  0  0  0  0  0
   15.9396  135.7104   -9.8222 O   0  0  0  0  0  0  0  0  0  0  0  0
   14.1178  136.0786   -8.3246 C   0  0  0  0  0  0  0  0  0  0  0  0
   14.2472  136.9723   -7.1573 N   0  0  0  0  0  0  0  0  0  0  0  0
   14.7623  136.2878   -5.9619 C   0  0  1  0  0  0  0  0  0  0  0  0
   14.5010  137.1182   -4.7141 C   0  0  0  0  0  0  0  0  0  0  0  0
   14.7654  136.3578   -3.4287 C   0  0  0  0  0  0  0  0  0  0  0  0
   14.9315  137.0941   -2.2615 C   0  0  0  0  0  0  0  0  0  0  0  0
   15.1427  136.4310   -1.0574 C   0  0  0  0  0  0  0  0  0  0  0  0
   15.3189  137.1823    0.1697 C   0  0  0  0  0  0  0  0  0  0  0  0
   14.6945  138.4168    0.3115 C   0  0  0  0  0  0  0  0  0  0  0  0
   14.8680  139.1328    1.4912 C   0  0  0  0  0  0  0  0  0  0  0  0
   15.6556  138.6209    2.5163 C   0  0  0  0  0  0  0  0  0  0  0  0
   16.2768  137.3852    2.3655 C   0  0  0  0  0  0  0  0  0  0  0  0
   16.1092  136.6617    1.1894 C   0  0  0  0  0  0  0  0  0  0  0  0
   15.1872  135.0420   -1.0261 C   0  0  0  0  0  0  0  0  0  0  0  0
   15.0259  134.3351   -2.2120 C   0  0  0  0  0  0  0  0  0  0  0  0
   14.8138  134.9664   -3.4398 C   0  0  0  0  0  0  0  0  0  0  0  0
   14.6551  134.2425   -4.6293 N   0  0  0  0  0  0  0  0  0  0  0  0
   15.0757  132.8475   -4.7676 C   0  0  0  0  0  0  0  0  0  0  0  0
   16.5497  132.6841   -4.5269 C   0  0  0  0  0  0  0  0  0  0  0  0
   17.5461  133.2906   -5.2339 C   0  0  0  0  0  0  0  0  0  0  0  0
   18.7266  132.8756   -4.6923 N   0  0  0  0  0  0  0  0  0  0  0  0
   18.4674  132.0521   -3.6993 C   0  0  0  0  0  0  0  0  0  0  0  0
   17.1210  131.9144   -3.5631 N   0  0  0  0  0  0  0  0  0  0  0  0
   16.4170  131.0866   -2.5724 C   0  0  0  0  0  0  0  0  0  0  0  0
   14.1270  134.9131   -5.8330 C   0  0  0  0  0  0  0  0  0  0  0  0
   15.1230  138.4268   -7.5987 S   0  0  0  0  0  0  0  0  0  0  0  0
   14.6689  139.5760   -6.7409 O   0  0  0  0  0  0  0  0  0  0  0  0
   14.9119  138.7706   -9.0468 O   0  0  0  0  0  0  0  0  0  0  0  0
   16.8341  138.1551   -7.3363 C   0  0  0  0  0  0  0  0  0  0  0  0
   17.4052  137.8424   -6.1409 C   0  0  0  0  0  0  0  0  0  0  0  0
   18.7355  137.7228   -6.3924 N   0  0  0  0  0  0  0  0  0  0  0  0
   19.7722  137.3904   -5.4048 C   0  0  0  0  0  0  0  0  0  0  0  0
   18.9457  137.9607   -7.7159 C   0  0  0  0  0  0  0  0  0  0  0  0
   17.7986  138.2233   -8.2974 N   0  0  0  0  0  0  0  0  0  0  0  0
   18.0237  135.2955   -7.7947 H   0  0  0  0  0  0  0  0  0  0  0  0
   17.7941  133.8456   -7.0793 H   0  0  0  0  0  0  0  0  0  0  0  0
   17.7163  133.9752   -8.7053 H   0  0  0  0  0  0  0  0  0  0  0  0
   13.4815  135.3390   -8.1052 H   0  0  0  0  0  0  0  0  0  0  0  0
   13.7672  136.6001   -9.1024 H   0  0  0  0  0  0  0  0  0  0  0  0
   15.7503  136.1719   -6.0642 H   0  0  0  0  0  0  0  0  0  0  0  0
   15.0953  137.9222   -4.7365 H   0  0  0  0  0  0  0  0  0  0  0  0
   13.5447  137.4103   -4.7204 H   0  0  0  0  0  0  0  0  0  0  0  0
   14.8995  138.0933   -2.2874 H   0  0  0  0  0  0  0  0  0  0  0  0
   14.1278  138.7852   -0.4255 H   0  0  0  0  0  0  0  0  0  0  0  0
   14.4234  140.0215    1.6029 H   0  0  0  0  0  0  0  0  0  0  0  0
   15.7756  139.1410    3.3619 H   0  0  0  0  0  0  0  0  0  0  0  0
   16.8436  137.0171    3.1025 H   0  0  0  0  0  0  0  0  0  0  0  0
   16.5540  135.7731    1.0775 H   0  0  0  0  0  0  0  0  0  0  0  0
   15.3330  134.5584   -0.1630 H   0  0  0  0  0  0  0  0  0  0  0  0
   15.0633  133.3362   -2.1852 H   0  0  0  0  0  0  0  0  0  0  0  0
   14.8620  132.5350   -5.6932 H   0  0  0  0  0  0  0  0  0  0  0  0
   14.5755  132.2910   -4.1042 H   0  0  0  0  0  0  0  0  0  0  0  0
   17.4325  133.9197   -6.0028 H   0  0  0  0  0  0  0  0  0  0  0  0
   19.1543  131.5976   -3.1322 H   0  0  0  0  0  0  0  0  0  0  0  0
   15.4300  131.1702   -2.7092 H   0  0  0  0  0  0  0  0  0  0  0  0
   16.6892  130.1308   -2.6829 H   0  0  0  0  0  0  0  0  0  0  0  0
   16.6533  131.3961   -1.6513 H   0  0  0  0  0  0  0  0  0  0  0  0
   13.1349  135.0098   -5.7534 H   0  0  0  0  0  0  0  0  0  0  0  0
   14.3449  134.3673   -6.6421 H   0  0  0  0  0  0  0  0  0  0  0  0
   16.9429  137.7252   -5.2619 H   0  0  0  0  0  0  0  0  0  0  0  0
   20.6649  137.3646   -5.8546 H   0  0  0  0  0  0  0  0  0  0  0  0
   19.7815  138.0844   -4.6849 H   0  0  0  0  0  0  0  0  0  0  0  0
   19.5753  136.4960   -5.0031 H   0  0  0  0  0  0  0  0  0  0  0  0
   19.8346  137.9388   -8.1735 H   0  0  0  0  0  0  0  0  0  0  0  0
  1  2  1  0  0  0  0
  2  3  1  0  0  0  0
  3  4  2  0  0  0  0
  3  5  1  0  0  0  0
  5  6  1  0  0  0  0
  6  7  1  0  0  0  0
  7  8  1  0  0  0  0
  8  9  1  0  0  0  0
  9 10  2  0  0  0  0
 10 11  1  0  0  0  0
 11 12  1  0  0  0  0
 12 13  2  0  0  0  0
 13 14  1  0  0  0  0
 14 15  2  0  0  0  0
 15 16  1  0  0  0  0
 16 17  2  0  0  0  0
 11 18  2  0  0  0  0
 18 19  1  0  0  0  0
 19 20  2  0  0  0  0
 20 21  1  0  0  0  0
 21 22  1  0  0  0  0
 22 23  1  0  0  0  0
 23 24  2  0  0  0  0
 24 25  1  0  0  0  0
 25 26  2  0  0  0  0
 26 27  1  0  0  0  0
 27 28  1  0  0  0  0
 21 29  1  0  0  0  0
  6 30  1  0  0  0  0
 30 31  2  0  0  0  0
 30 32  2  0  0  0  0
 30 33  1  0  0  0  0
 33 34  2  0  0  0  0
 34 35  1  0  0  0  0
 35 36  1  0  0  0  0
 35 37  1  0  0  0  0
 37 38  2  0  0  0  0
 29  7  1  0  0  0  0
 38 33  1  0  0  0  0
 20  9  1  0  0  0  0
 27 23  1  0  0  0  0
 17 12  1  0  0  0  0
  1 39  1  0  0  0  0
  1 40  1  0  0  0  0
  1 41  1  0  0  0  0
  5 42  1  0  0  0  0
  5 43  1  0  0  0  0
  7 44  1  0  0  0  0
  8 45  1  0  0  0  0
  8 46  1  0  0  0  0
 10 47  1  0  0  0  0
 13 48  1  0  0  0  0
 14 49  1  0  0  0  0
 15 50  1  0  0  0  0
 16 51  1  0  0  0  0
 17 52  1  0  0  0  0
 18 53  1  0  0  0  0
 19 54  1  0  0  0  0
 22 55  1  0  0  0  0
 22 56  1  0  0  0  0
 24 57  1  0  0  0  0
 26 58  1  0  0  0  0
 28 59  1  0  0  0  0
 28 60  1  0  0  0  0
 28 61  1  0  0  0  0
 29 62  1  0  0  0  0
 29 63  1  0  0  0  0
 34 64  1  0  0  0  0
 36 65  1  0  0  0  0
 36 66  1  0  0  0  0
 36 67  1  0  0  0  0
 37 68  1  0  0  0  0
M  END
>  <docking-score>
-18.66

$$$$
