1JCQ_739_1
foFlexX   03192112123D 1   1.00000     0.00000     0
FlexX 4.5.0 fol007
 74 74  0  0  0  0            999 V2000
   18.1266  134.9473    3.1407 C   0  0  0  0  0  0  0  0  0  0  0  0
   18.7006  135.9789    4.1133 C   0  0  0  0  0  0  0  0  0  0  0  0
   20.2516  136.0182    4.1086 C   0  0  2  0  0  0  0  0  0  0  0  0
   20.7849  136.5125    2.7494 C   0  0  0  0  0  0  0  0  0  0  0  0
   20.9220  134.6518    4.5090 C   0  0  2  0  0  0  0  0  0  0  0  0
   22.3636  134.4969    3.9637 C   0  0  0  0  0  0  0  0  0  0  0  0
   23.1832  133.8341    4.9087 O   0  0  0  0  0  0  0  0  0  0  0  0
   22.6771  132.5414    5.1973 C   0  0  2  0  0  0  0  0  0  0  0  0
   23.2212  132.0654    6.5578 C   0  0  0  0  0  0  0  0  0  0  0  0
   24.7291  131.9848    6.5940 C   0  0  0  0  0  0  0  0  0  0  0  0
   25.4641  133.0965    6.9912 C   0  0  0  0  0  0  0  0  0  0  0  0
   26.8523  133.0158    7.0219 C   0  0  0  0  0  0  0  0  0  0  0  0
   27.4974  131.8384    6.6602 C   0  0  0  0  0  0  0  0  0  0  0  0
   26.7538  130.7313    6.2637 C   0  0  0  0  0  0  0  0  0  0  0  0
   25.3652  130.8024    6.2298 C   0  0  0  0  0  0  0  0  0  0  0  0
   23.0479  131.5692    4.1031 C   0  0  0  0  0  0  0  0  0  0  0  0
   23.2130  130.3527    4.3906 O   0  0  0  0  0  0  0  0  0  0  0  0
   23.2437  132.0288    2.7562 N   0  0  0  0  0  0  0  0  0  0  0  0
   23.6364  131.1347    1.6661 C   0  0  1  0  0  0  0  0  0  0  0  0
   23.7244  131.9367    0.3561 C   0  0  0  0  0  0  0  0  0  0  0  0
   24.7643  131.3613   -0.6114 C   0  0  0  0  0  0  0  0  0  0  0  0
   25.4637  132.6523   -1.6268 S   0  0  0  0  0  0  0  0  0  0  0  0
   25.4555  134.1818   -0.7196 C   0  0  0  0  0  0  0  0  0  0  0  0
   26.8779  132.3013   -1.9948 O   0  0  0  0  0  0  0  0  0  0  0  0
   24.6473  132.8138   -2.8783 O   0  0  0  0  0  0  0  0  0  0  0  0
   24.9456  130.4754    2.0066 C   0  0  0  0  0  0  0  0  0  0  0  0
   25.0706  129.2239    1.9342 O   0  0  0  0  0  0  0  0  0  0  0  0
   26.0329  131.2504    2.3897 O   0  5  0  0  0  0  0  0  0  0  0  0
   20.0910  133.4780    4.1315 N   0  3  0  0  0  0  0  0  0  0  0  0
   20.4005  132.9841    2.7731 C   0  0  0  0  0  0  0  0  0  0  0  0
   19.5445  131.7587    2.3583 C   0  0  2  0  0  0  0  0  0  0  0  0
   19.7497  130.6243    3.2701 N   0  3  0  0  0  0  0  0  0  0  0  0
   19.7944  131.3499    0.8904 C   0  0  0  0  0  0  0  0  0  0  0  0
   19.4038  129.6299    0.6261 S   0  0  0  0  0  0  0  0  0  0  0  0
   18.4544  134.0360    3.3897 H   0  0  0  0  0  0  0  0  0  0  0  0
   17.1278  134.9662    3.1860 H   0  0  0  0  0  0  0  0  0  0  0  0
   18.4223  135.1654    2.2107 H   0  0  0  0  0  0  0  0  0  0  0  0
   18.3902  135.7536    5.0368 H   0  0  0  0  0  0  0  0  0  0  0  0
   18.3581  136.8830    3.8578 H   0  0  0  0  0  0  0  0  0  0  0  0
   20.5290  136.6917    4.7938 H   0  0  0  0  0  0  0  0  0  0  0  0
   20.5795  135.8340    2.0441 H   0  0  0  0  0  0  0  0  0  0  0  0
   20.3465  137.3802    2.5150 H   0  0  0  0  0  0  0  0  0  0  0  0
   21.7745  136.6439    2.8075 H   0  0  0  0  0  0  0  0  0  0  0  0
   20.9901  134.6467    5.5066 H   0  0  0  0  0  0  0  0  0  0  0  0
   22.7437  135.4028    3.7766 H   0  0  0  0  0  0  0  0  0  0  0  0
   22.3399  133.9642    3.1177 H   0  0  0  0  0  0  0  0  0  0  0  0
   21.6800  132.5942    5.2530 H   0  0  0  0  0  0  0  0  0  0  0  0
   22.8487  131.1575    6.7501 H   0  0  0  0  0  0  0  0  0  0  0  0
   22.9192  132.7060    7.2637 H   0  0  0  0  0  0  0  0  0  0  0  0
   25.0004  133.9434    7.2516 H   0  0  0  0  0  0  0  0  0  0  0  0
   27.3899  133.8097    7.3059 H   0  0  0  0  0  0  0  0  0  0  0  0
   28.4958  131.7874    6.6850 H   0  0  0  0  0  0  0  0  0  0  0  0
   27.2177  129.8846    6.0032 H   0  0  0  0  0  0  0  0  0  0  0  0
   24.8275  130.0086    5.9455 H   0  0  0  0  0  0  0  0  0  0  0  0
   23.1061  132.9987    2.5554 H   0  0  0  0  0  0  0  0  0  0  0  0
   22.9374  130.4270    1.5633 H   0  0  0  0  0  0  0  0  0  0  0  0
   23.9749  132.8801    0.5732 H   0  0  0  0  0  0  0  0  0  0  0  0
   22.8292  131.9235   -0.0893 H   0  0  0  0  0  0  0  0  0  0  0  0
   24.3250  130.6825   -1.1999 H   0  0  0  0  0  0  0  0  0  0  0  0
   25.4948  130.9245   -0.0865 H   0  0  0  0  0  0  0  0  0  0  0  0
   25.8441  134.9079   -1.2869 H   0  0  0  0  0  0  0  0  0  0  0  0
   24.5156  134.4182   -0.4732 H   0  0  0  0  0  0  0  0  0  0  0  0
   26.0022  134.0794    0.1114 H   0  0  0  0  0  0  0  0  0  0  0  0
   19.1272  133.7422    4.1656 H   0  0  0  0  0  0  0  0  0  0  0  0
   20.2583  132.7416    4.7871 H   0  0  0  0  0  0  0  0  0  0  0  0
   21.3653  132.7229    2.7420 H   0  0  0  0  0  0  0  0  0  0  0  0
   20.2342  133.7235    2.1206 H   0  0  0  0  0  0  0  0  0  0  0  0
   18.5844  132.0288    2.4319 H   0  0  0  0  0  0  0  0  0  0  0  0
   20.4367  130.0077    2.8856 H   0  0  0  0  0  0  0  0  0  0  0  0
   20.0642  130.9623    4.1571 H   0  0  0  0  0  0  0  0  0  0  0  0
   18.8877  130.1312    3.3879 H   0  0  0  0  0  0  0  0  0  0  0  0
   20.7572  131.5039    0.6681 H   0  0  0  0  0  0  0  0  0  0  0  0
   19.2207  131.9104    0.2932 H   0  0  0  0  0  0  0  0  0  0  0  0
   19.9773  129.0632    1.2176 H   0  0  0  0  0  0  0  0  0  0  0  0
  1  2  1  0  0  0  0
  2  3  1  0  0  0  0
  3  4  1  0  0  0  0
  3  5  1  0  0  0  0
  5  6  1  0  0  0  0
  6  7  1  0  0  0  0
  7  8  1  0  0  0  0
  8  9  1  0  0  0  0
  9 10  1  0  0  0  0
 10 11  2  0  0  0  0
 11 12  1  0  0  0  0
 12 13  2  0  0  0  0
 13 14  1  0  0  0  0
 14 15  2  0  0  0  0
  8 16  1  0  0  0  0
 16 17  2  0  0  0  0
 16 18  1  0  0  0  0
 18 19  1  0  0  0  0
 19 20  1  0  0  0  0
 20 21  1  0  0  0  0
 21 22  1  0  0  0  0
 22 23  1  0  0  0  0
 22 24  2  0  0  0  0
 22 25  2  0  0  0  0
 19 26  1  0  0  0  0
 26 27  2  0  0  0  0
 26 28  1  0  0  0  0
  5 29  1  0  0  0  0
 29 30  1  0  0  0  0
 30 31  1  0  0  0  0
 31 32  1  0  0  0  0
 31 33  1  0  0  0  0
 33 34  1  0  0  0  0
 15 10  1  0  0  0  0
  1 35  1  0  0  0  0
  1 36  1  0  0  0  0
  1 37  1  0  0  0  0
  2 38  1  0  0  0  0
  2 39  1  0  0  0  0
  3 40  1  0  0  0  0
  4 41  1  0  0  0  0
  4 42  1  0  0  0  0
  4 43  1  0  0  0  0
  5 44  1  0  0  0  0
  6 45  1  0  0  0  0
  6 46  1  0  0  0  0
  8 47  1  0  0  0  0
  9 48  1  0  0  0  0
  9 49  1  0  0  0  0
 11 50  1  0  0  0  0
 12 51  1  0  0  0  0
 13 52  1  0  0  0  0
 14 53  1  0  0  0  0
 15 54  1  0  0  0  0
 18 55  1  0  0  0  0
 19 56  1  0  0  0  0
 20 57  1  0  0  0  0
 20 58  1  0  0  0  0
 21 59  1  0  0  0  0
 21 60  1  0  0  0  0
 23 61  1  0  0  0  0
 23 62  1  0  0  0  0
 23 63  1  0  0  0  0
 29 64  1  0  0  0  0
 29 65  1  0  0  0  0
 30 66  1  0  0  0  0
 30 67  1  0  0  0  0
 31 68  1  0  0  0  0
 32 69  1  0  0  0  0
 32 70  1  0  0  0  0
 32 71  1  0  0  0  0
 33 72  1  0  0  0  0
 33 73  1  0  0  0  0
 34 74  1  0  0  0  0
M  CHG  3  28  -1  29   1  32   1
M  END
>  <docking-score>
-42.68

$$$$
1JCQ_739_2
foFlexX   03192112123D 1   1.00000     0.00000     0
FlexX 4.5.0 fol007
 74 74  0  0  0  0            999 V2000
   17.7690  135.9945    2.5930 C   0  0  0  0  0  0  0  0  0  0  0  0
   18.6929  136.6646    3.6112 C   0  0  0  0  0  0  0  0  0  0  0  0
   20.1839  136.2799    3.4212 C   0  0  2  0  0  0  0  0  0  0  0  0
   20.5231  136.1158    1.9266 C   0  0  0  0  0  0  0  0  0  0  0  0
   20.6191  135.0061    4.2366 C   0  0  2  0  0  0  0  0  0  0  0  0
   21.8555  134.2911    3.6367 C   0  0  0  0  0  0  0  0  0  0  0  0
   22.6913  133.7966    4.6668 O   0  0  0  0  0  0  0  0  0  0  0  0
   22.3229  132.4752    5.0253 C   0  0  2  0  0  0  0  0  0  0  0  0
   22.8402  132.1610    6.4421 C   0  0  0  0  0  0  0  0  0  0  0  0
   24.3427  132.2641    6.5573 C   0  0  0  0  0  0  0  0  0  0  0  0
   24.9200  133.4802    6.9064 C   0  0  0  0  0  0  0  0  0  0  0  0
   26.3042  133.5684    7.0103 C   0  0  0  0  0  0  0  0  0  0  0  0
   27.1010  132.4550    6.7685 C   0  0  0  0  0  0  0  0  0  0  0  0
   26.5146  131.2426    6.4193 C   0  0  0  0  0  0  0  0  0  0  0  0
   25.1313  131.1444    6.3129 C   0  0  0  0  0  0  0  0  0  0  0  0
   22.8656  131.4826    4.0253 C   0  0  0  0  0  0  0  0  0  0  0  0
   23.1540  130.3169    4.4097 O   0  0  0  0  0  0  0  0  0  0  0  0
   23.0831  131.8701    2.6592 N   0  0  0  0  0  0  0  0  0  0  0  0
   23.6383  130.9576    1.6586 C   0  0  1  0  0  0  0  0  0  0  0  0
   23.7071  131.6738    0.2987 C   0  0  0  0  0  0  0  0  0  0  0  0
   24.8601  131.1628   -0.5720 C   0  0  0  0  0  0  0  0  0  0  0  0
   25.4618  132.4566   -1.6450 S   0  0  0  0  0  0  0  0  0  0  0  0
   25.2247  134.0320   -0.8548 C   0  0  0  0  0  0  0  0  0  0  0  0
   26.9258  132.2533   -1.9169 O   0  0  0  0  0  0  0  0  0  0  0  0
   24.7047  132.4341   -2.9432 O   0  0  0  0  0  0  0  0  0  0  0  0
   24.9936  130.4844    2.1100 C   0  0  0  0  0  0  0  0  0  0  0  0
   25.2668  129.2548    2.1366 O   0  0  0  0  0  0  0  0  0  0  0  0
   25.9601  131.4081    2.4871 O   0  5  0  0  0  0  0  0  0  0  0  0
   19.5015  134.0447    4.4298 N   0  3  0  0  0  0  0  0  0  0  0  0
   18.9562  133.5520    3.1473 C   0  0  0  0  0  0  0  0  0  0  0  0
   19.0662  132.0129    2.9872 C   0  0  2  0  0  0  0  0  0  0  0  0
   20.2305  131.4779    3.7073 N   0  3  0  0  0  0  0  0  0  0  0  0
   19.0807  131.5862    1.5032 C   0  0  0  0  0  0  0  0  0  0  0  0
   19.0468  129.8102    1.3440 S   0  0  0  0  0  0  0  0  0  0  0  0
   17.8401  135.0010    2.6816 H   0  0  0  0  0  0  0  0  0  0  0  0
   16.8250  136.2775    2.7626 H   0  0  0  0  0  0  0  0  0  0  0  0
   18.0378  136.2668    1.6691 H   0  0  0  0  0  0  0  0  0  0  0  0
   18.4075  136.3905    4.5295 H   0  0  0  0  0  0  0  0  0  0  0  0
   18.6051  137.6563    3.5170 H   0  0  0  0  0  0  0  0  0  0  0  0
   20.7291  137.0456    3.7623 H   0  0  0  0  0  0  0  0  0  0  0  0
   20.0417  135.3192    1.5610 H   0  0  0  0  0  0  0  0  0  0  0  0
   20.2386  136.9348    1.4283 H   0  0  0  0  0  0  0  0  0  0  0  0
   21.5091  135.9869    1.8207 H   0  0  0  0  0  0  0  0  0  0  0  0
   20.8848  135.3245    5.1465 H   0  0  0  0  0  0  0  0  0  0  0  0
   22.3715  134.9398    3.0773 H   0  0  0  0  0  0  0  0  0  0  0  0
   21.5500  133.5286    3.0664 H   0  0  0  0  0  0  0  0  0  0  0  0
   21.3249  132.4119    5.0285 H   0  0  0  0  0  0  0  0  0  0  0  0
   22.5651  131.2302    6.6827 H   0  0  0  0  0  0  0  0  0  0  0  0
   22.4262  132.8072    7.0832 H   0  0  0  0  0  0  0  0  0  0  0  0
   24.3472  134.2811    7.0806 H   0  0  0  0  0  0  0  0  0  0  0  0
   26.7291  134.4384    7.2606 H   0  0  0  0  0  0  0  0  0  0  0  0
   28.0955  132.5257    6.8454 H   0  0  0  0  0  0  0  0  0  0  0  0
   27.0877  130.4418    6.2449 H   0  0  0  0  0  0  0  0  0  0  0  0
   24.7063  130.2746    6.0623 H   0  0  0  0  0  0  0  0  0  0  0  0
   22.8457  132.8007    2.3808 H   0  0  0  0  0  0  0  0  0  0  0  0
   23.0331  130.1660    1.5746 H   0  0  0  0  0  0  0  0  0  0  0  0
   23.8338  132.6530    0.4573 H   0  0  0  0  0  0  0  0  0  0  0  0
   22.8463  131.5235   -0.1875 H   0  0  0  0  0  0  0  0  0  0  0  0
   24.5367  130.3981   -1.1293 H   0  0  0  0  0  0  0  0  0  0  0  0
   25.6053  130.8532    0.0186 H   0  0  0  0  0  0  0  0  0  0  0  0
   25.5581  134.7593   -1.4547 H   0  0  0  0  0  0  0  0  0  0  0  0
   24.2512  134.1703   -0.6725 H   0  0  0  0  0  0  0  0  0  0  0  0
   25.7314  134.0523    0.0070 H   0  0  0  0  0  0  0  0  0  0  0  0
   18.7696  134.5003    4.9365 H   0  0  0  0  0  0  0  0  0  0  0  0
   19.8366  133.2642    4.9577 H   0  0  0  0  0  0  0  0  0  0  0  0
   19.4597  133.9860    2.4002 H   0  0  0  0  0  0  0  0  0  0  0  0
   17.9914  133.8090    3.0925 H   0  0  0  0  0  0  0  0  0  0  0  0
   18.2500  131.6121    3.4033 H   0  0  0  0  0  0  0  0  0  0  0  0
   20.9854  132.1314    3.6526 H   0  0  0  0  0  0  0  0  0  0  0  0
   19.9891  131.3269    4.6659 H   0  0  0  0  0  0  0  0  0  0  0  0
   20.5091  130.6113    3.2932 H   0  0  0  0  0  0  0  0  0  0  0  0
   19.9115  131.9369    1.0709 H   0  0  0  0  0  0  0  0  0  0  0  0
   18.2790  131.9704    1.0453 H   0  0  0  0  0  0  0  0  0  0  0  0
   19.9829  129.4590    1.3291 H   0  0  0  0  0  0  0  0  0  0  0  0
  1  2  1  0  0  0  0
  2  3  1  0  0  0  0
  3  4  1  0  0  0  0
  3  5  1  0  0  0  0
  5  6  1  0  0  0  0
  6  7  1  0  0  0  0
  7  8  1  0  0  0  0
  8  9  1  0  0  0  0
  9 10  1  0  0  0  0
 10 11  2  0  0  0  0
 11 12  1  0  0  0  0
 12 13  2  0  0  0  0
 13 14  1  0  0  0  0
 14 15  2  0  0  0  0
  8 16  1  0  0  0  0
 16 17  2  0  0  0  0
 16 18  1  0  0  0  0
 18 19  1  0  0  0  0
 19 20  1  0  0  0  0
 20 21  1  0  0  0  0
 21 22  1  0  0  0  0
 22 23  1  0  0  0  0
 22 24  2  0  0  0  0
 22 25  2  0  0  0  0
 19 26  1  0  0  0  0
 26 27  2  0  0  0  0
 26 28  1  0  0  0  0
  5 29  1  0  0  0  0
 29 30  1  0  0  0  0
 30 31  1  0  0  0  0
 31 32  1  0  0  0  0
 31 33  1  0  0  0  0
 33 34  1  0  0  0  0
 15 10  1  0  0  0  0
  1 35  1  0  0  0  0
  1 36  1  0  0  0  0
  1 37  1  0  0  0  0
  2 38  1  0  0  0  0
  2 39  1  0  0  0  0
  3 40  1  0  0  0  0
  4 41  1  0  0  0  0
  4 42  1  0  0  0  0
  4 43  1  0  0  0  0
  5 44  1  0  0  0  0
  6 45  1  0  0  0  0
  6 46  1  0  0  0  0
  8 47  1  0  0  0  0
  9 48  1  0  0  0  0
  9 49  1  0  0  0  0
 11 50  1  0  0  0  0
 12 51  1  0  0  0  0
 13 52  1  0  0  0  0
 14 53  1  0  0  0  0
 15 54  1  0  0  0  0
 18 55  1  0  0  0  0
 19 56  1  0  0  0  0
 20 57  1  0  0  0  0
 20 58  1  0  0  0  0
 21 59  1  0  0  0  0
 21 60  1  0  0  0  0
 23 61  1  0  0  0  0
 23 62  1  0  0  0  0
 23 63  1  0  0  0  0
 29 64  1  0  0  0  0
 29 65  1  0  0  0  0
 30 66  1  0  0  0  0
 30 67  1  0  0  0  0
 31 68  1  0  0  0  0
 32 69  1  0  0  0  0
 32 70  1  0  0  0  0
 32 71  1  0  0  0  0
 33 72  1  0  0  0  0
 33 73  1  0  0  0  0
 34 74  1  0  0  0  0
M  CHG  3  28  -1  29   1  32   1
M  END
>  <docking-score>
-40.11

$$$$
1JCQ_739_3
foFlexX   03192112123D 1   1.00000     0.00000     0
FlexX 4.5.0 fol007
 74 74  0  0  0  0            999 V2000
   22.7901  135.8980    1.4493 C   0  0  0  0  0  0  0  0  0  0  0  0
   22.1783  135.9688    2.8494 C   0  0  0  0  0  0  0  0  0  0  0  0
   20.6908  135.5290    2.8832 C   0  0  2  0  0  0  0  0  0  0  0  0
   19.7624  136.7010    2.5084 C   0  0  0  0  0  0  0  0  0  0  0  0
   20.2515  134.8821    4.2489 C   0  0  2  0  0  0  0  0  0  0  0  0
   21.4351  134.2823    5.0483 C   0  0  0  0  0  0  0  0  0  0  0  0
   22.3715  133.6815    4.1730 O   0  0  0  0  0  0  0  0  0  0  0  0
   23.0331  132.5994    4.8069 C   0  0  2  0  0  0  0  0  0  0  0  0
   24.2816  133.1184    5.5455 C   0  0  0  0  0  0  0  0  0  0  0  0
   24.8913  134.3348    4.8897 C   0  0  0  0  0  0  0  0  0  0  0  0
   24.1318  135.4919    4.7543 C   0  0  0  0  0  0  0  0  0  0  0  0
   24.6992  136.6082    4.1490 C   0  0  0  0  0  0  0  0  0  0  0  0
   26.0092  136.5683    3.6851 C   0  0  0  0  0  0  0  0  0  0  0  0
   26.7615  135.4062    3.8245 C   0  0  0  0  0  0  0  0  0  0  0  0
   26.2029  134.2847    4.4285 C   0  0  0  0  0  0  0  0  0  0  0  0
   23.4101  131.5422    3.7970 C   0  0  0  0  0  0  0  0  0  0  0  0
   23.4653  130.3360    4.1601 O   0  0  0  0  0  0  0  0  0  0  0  0
   23.7352  131.9082    2.4464 N   0  0  0  0  0  0  0  0  0  0  0  0
   24.1393  130.9274    1.4380 C   0  0  1  0  0  0  0  0  0  0  0  0
   24.3793  131.6440    0.0979 C   0  0  0  0  0  0  0  0  0  0  0  0
   25.4783  132.7078    0.1939 C   0  0  0  0  0  0  0  0  0  0  0  0
   25.7194  133.5098   -1.3827 S   0  0  0  0  0  0  0  0  0  0  0  0
   24.1832  133.5172   -2.2785 C   0  0  0  0  0  0  0  0  0  0  0  0
   26.1763  134.9256   -1.1696 O   0  0  0  0  0  0  0  0  0  0  0  0
   26.7542  132.7655   -2.1792 O   0  0  0  0  0  0  0  0  0  0  0  0
   25.3693  130.2010    1.9113 C   0  0  0  0  0  0  0  0  0  0  0  0
   25.4080  128.9417    1.9149 O   0  0  0  0  0  0  0  0  0  0  0  0
   26.4796  130.9206    2.3342 O   0  5  0  0  0  0  0  0  0  0  0  0
   19.1705  133.8752    4.0802 N   0  3  0  0  0  0  0  0  0  0  0  0
   19.2326  133.1990    2.7672 C   0  0  0  0  0  0  0  0  0  0  0  0
   19.4194  131.6630    2.8789 C   0  0  2  0  0  0  0  0  0  0  0  0
   20.6638  131.3210    3.5822 N   0  3  0  0  0  0  0  0  0  0  0  0
   19.3465  130.9708    1.5005 C   0  0  0  0  0  0  0  0  0  0  0  0
   20.9753  130.7255    0.8167 S   0  0  0  0  0  0  0  0  0  0  0  0
   22.2815  136.4987    0.8325 H   0  0  0  0  0  0  0  0  0  0  0  0
   23.7453  136.1914    1.4877 H   0  0  0  0  0  0  0  0  0  0  0  0
   22.7435  134.9577    1.1123 H   0  0  0  0  0  0  0  0  0  0  0  0
   22.2394  136.9117    3.1766 H   0  0  0  0  0  0  0  0  0  0  0  0
   22.7014  135.3706    3.4564 H   0  0  0  0  0  0  0  0  0  0  0  0
   20.5769  134.8289    2.1782 H   0  0  0  0  0  0  0  0  0  0  0  0
   19.8020  137.3993    3.2231 H   0  0  0  0  0  0  0  0  0  0  0  0
   20.0591  137.0965    1.6392 H   0  0  0  0  0  0  0  0  0  0  0  0
   18.8238  136.3675    2.4198 H   0  0  0  0  0  0  0  0  0  0  0  0
   19.8722  135.6199    4.8074 H   0  0  0  0  0  0  0  0  0  0  0  0
   21.0873  133.5916    5.6824 H   0  0  0  0  0  0  0  0  0  0  0  0
   21.8867  135.0106    5.5637 H   0  0  0  0  0  0  0  0  0  0  0  0
   22.4115  132.1936    5.4769 H   0  0  0  0  0  0  0  0  0  0  0  0
   24.9663  132.3899    5.5651 H   0  0  0  0  0  0  0  0  0  0  0  0
   24.0221  133.3572    6.4813 H   0  0  0  0  0  0  0  0  0  0  0  0
   23.1896  135.5209    5.0880 H   0  0  0  0  0  0  0  0  0  0  0  0
   24.1613  137.4450    4.0467 H   0  0  0  0  0  0  0  0  0  0  0  0
   26.4108  137.3748    3.2513 H   0  0  0  0  0  0  0  0  0  0  0  0
   27.7036  135.3773    3.4905 H   0  0  0  0  0  0  0  0  0  0  0  0
   26.7405  133.4477    4.5305 H   0  0  0  0  0  0  0  0  0  0  0  0
   23.6832  132.8720    2.1847 H   0  0  0  0  0  0  0  0  0  0  0  0
   23.4000  130.2645    1.3201 H   0  0  0  0  0  0  0  0  0  0  0  0
   23.5286  132.0857   -0.1871 H   0  0  0  0  0  0  0  0  0  0  0  0
   24.6478  130.9654   -0.5857 H   0  0  0  0  0  0  0  0  0  0  0  0
   26.3334  132.2721    0.4747 H   0  0  0  0  0  0  0  0  0  0  0  0
   25.2141  133.3923    0.8734 H   0  0  0  0  0  0  0  0  0  0  0  0
   24.3156  133.9632   -3.1637 H   0  0  0  0  0  0  0  0  0  0  0  0
   23.8765  132.5763   -2.4220 H   0  0  0  0  0  0  0  0  0  0  0  0
   23.4937  134.0162   -1.7536 H   0  0  0  0  0  0  0  0  0  0  0  0
   18.2867  134.3355    4.1632 H   0  0  0  0  0  0  0  0  0  0  0  0
   19.2570  133.1871    4.8006 H   0  0  0  0  0  0  0  0  0  0  0  0
   20.0021  133.5760    2.2516 H   0  0  0  0  0  0  0  0  0  0  0  0
   18.3810  133.3807    2.2756 H   0  0  0  0  0  0  0  0  0  0  0  0
   18.6616  131.3111    3.4283 H   0  0  0  0  0  0  0  0  0  0  0  0
   21.3733  131.9852    3.3465 H   0  0  0  0  0  0  0  0  0  0  0  0
   20.5047  131.3393    4.5693 H   0  0  0  0  0  0  0  0  0  0  0  0
   20.9602  130.4058    3.3092 H   0  0  0  0  0  0  0  0  0  0  0  0
   18.8130  131.5416    0.8763 H   0  0  0  0  0  0  0  0  0  0  0  0
   18.8991  130.0825    1.6046 H   0  0  0  0  0  0  0  0  0  0  0  0
   21.3294  129.8373    1.1094 H   0  0  0  0  0  0  0  0  0  0  0  0
  1  2  1  0  0  0  0
  2  3  1  0  0  0  0
  3  4  1  0  0  0  0
  3  5  1  0  0  0  0
  5  6  1  0  0  0  0
  6  7  1  0  0  0  0
  7  8  1  0  0  0  0
  8  9  1  0  0  0  0
  9 10  1  0  0  0  0
 10 11  2  0  0  0  0
 11 12  1  0  0  0  0
 12 13  2  0  0  0  0
 13 14  1  0  0  0  0
 14 15  2  0  0  0  0
  8 16  1  0  0  0  0
 16 17  2  0  0  0  0
 16 18  1  0  0  0  0
 18 19  1  0  0  0  0
 19 20  1  0  0  0  0
 20 21  1  0  0  0  0
 21 22  1  0  0  0  0
 22 23  1  0  0  0  0
 22 24  2  0  0  0  0
 22 25  2  0  0  0  0
 19 26  1  0  0  0  0
 26 27  2  0  0  0  0
 26 28  1  0  0  0  0
  5 29  1  0  0  0  0
 29 30  1  0  0  0  0
 30 31  1  0  0  0  0
 31 32  1  0  0  0  0
 31 33  1  0  0  0  0
 33 34  1  0  0  0  0
 15 10  1  0  0  0  0
  1 35  1  0  0  0  0
  1 36  1  0  0  0  0
  1 37  1  0  0  0  0
  2 38  1  0  0  0  0
  2 39  1  0  0  0  0
  3 40  1  0  0  0  0
  4 41  1  0  0  0  0
  4 42  1  0  0  0  0
  4 43  1  0  0  0  0
  5 44  1  0  0  0  0
  6 45  1  0  0  0  0
  6 46  1  0  0  0  0
  8 47  1  0  0  0  0
  9 48  1  0  0  0  0
  9 49  1  0  0  0  0
 11 50  1  0  0  0  0
 12 51  1  0  0  0  0
 13 52  1  0  0  0  0
 14 53  1  0  0  0  0
 15 54  1  0  0  0  0
 18 55  1  0  0  0  0
 19 56  1  0  0  0  0
 20 57  1  0  0  0  0
 20 58  1  0  0  0  0
 21 59  1  0  0  0  0
 21 60  1  0  0  0  0
 23 61  1  0  0  0  0
 23 62  1  0  0  0  0
 23 63  1  0  0  0  0
 29 64  1  0  0  0  0
 29 65  1  0  0  0  0
 30 66  1  0  0  0  0
 30 67  1  0  0  0  0
 31 68  1  0  0  0  0
 32 69  1  0  0  0  0
 32 70  1  0  0  0  0
 32 71  1  0  0  0  0
 33 72  1  0  0  0  0
 33 73  1  0  0  0  0
 34 74  1  0  0  0  0
M  CHG  3  28  -1  29   1  32   1
M  END
>  <docking-score>
-39.25

$$$$
2IEJ_FII_1
foFlexX   03192112123D 1   1.00000     0.00000     0
FlexX 4.5.0 fol007
 52 51  0  0  0  0            999 V2000
   14.1108  132.0790   -4.0875 C   0  0  0  0  0  0  0  0  0  0  0  0
   13.5605  130.9674   -3.2255 C   0  0  0  0  0  0  0  0  0  0  0  0
   12.7017  131.3014   -2.0332 C   0  0  0  0  0  0  0  0  0  0  0  0
   13.8190  129.6705   -3.4959 C   0  0  0  0  0  0  0  0  0  0  0  0
   14.6663  129.2256   -4.6636 C   0  0  0  0  0  0  0  0  0  0  0  0
   15.3922  127.9111   -4.3550 C   0  0  0  0  0  0  0  0  0  0  0  0
   16.7440  128.1754   -3.7279 C   0  0  0  0  0  0  0  0  0  0  0  0
   16.8589  129.2158   -2.6379 C   0  0  0  0  0  0  0  0  0  0  0  0
   17.8187  127.4811   -4.1679 C   0  0  0  0  0  0  0  0  0  0  0  0
   19.2184  127.6463   -3.6312 C   0  0  0  0  0  0  0  0  0  0  0  0
   19.9785  128.7213   -4.4164 C   0  0  0  0  0  0  0  0  0  0  0  0
   20.9994  129.4092   -3.5372 C   0  0  0  0  0  0  0  0  0  0  0  0
   22.4634  129.0736   -3.6976 C   0  0  0  0  0  0  0  0  0  0  0  0
   20.5796  130.3055   -2.6171 C   0  0  0  0  0  0  0  0  0  0  0  0
   21.5140  131.0418   -1.6966 C   0  0  0  0  0  0  0  0  0  0  0  0
   22.3798  130.1211   -1.0776 O   0  0  0  0  0  0  0  0  0  0  0  0
   22.4244  130.4565    0.2391 N   0  0  0  0  0  0  0  0  0  0  0  0
   23.2510  131.5331    0.6929 C   0  0  0  0  0  0  0  0  0  0  0  0
   23.9485  132.1822   -0.1322 O   0  0  0  0  0  0  0  0  0  0  0  0
   23.3342  131.8571    2.1505 C   0  0  0  0  0  0  0  0  0  0  0  0
   24.6351  130.8588    2.9344 P   0  0  0  0  0  0  0  0  0  0  0  0
   24.0356  130.0045    4.0281 O   0  0  0  0  0  0  0  0  0  0  0  0
   25.3609  129.8624    1.7768 O   0  5  0  0  0  0  0  0  0  0  0  0
   25.8018  131.8848    3.6011 O   0  5  0  0  0  0  0  0  0  0  0  0
   14.6548  131.6872   -4.8295 H   0  0  0  0  0  0  0  0  0  0  0  0
   13.3544  132.6080   -4.4722 H   0  0  0  0  0  0  0  0  0  0  0  0
   14.6874  132.6776   -3.5315 H   0  0  0  0  0  0  0  0  0  0  0  0
   12.4232  130.4569   -1.5759 H   0  0  0  0  0  0  0  0  0  0  0  0
   13.2226  131.8694   -1.3959 H   0  0  0  0  0  0  0  0  0  0  0  0
   11.8895  131.7998   -2.3365 H   0  0  0  0  0  0  0  0  0  0  0  0
   13.4313  128.9717   -2.8948 H   0  0  0  0  0  0  0  0  0  0  0  0
   15.3442  129.9333   -4.8627 H   0  0  0  0  0  0  0  0  0  0  0  0
   14.0780  129.0936   -5.4615 H   0  0  0  0  0  0  0  0  0  0  0  0
   15.5198  127.4001   -5.2051 H   0  0  0  0  0  0  0  0  0  0  0  0
   14.8373  127.3714   -3.7218 H   0  0  0  0  0  0  0  0  0  0  0  0
   17.8102  129.2787   -2.3361 H   0  0  0  0  0  0  0  0  0  0  0  0
   16.5618  130.1029   -2.9911 H   0  0  0  0  0  0  0  0  0  0  0  0
   16.2807  128.9541   -1.8651 H   0  0  0  0  0  0  0  0  0  0  0  0
   17.6752  126.8133   -4.8983 H   0  0  0  0  0  0  0  0  0  0  0  0
   19.7050  126.7763   -3.7111 H   0  0  0  0  0  0  0  0  0  0  0  0
   19.1712  127.9147   -2.6691 H   0  0  0  0  0  0  0  0  0  0  0  0
   19.3278  129.4005   -4.7561 H   0  0  0  0  0  0  0  0  0  0  0  0
   20.4471  128.2929   -5.1890 H   0  0  0  0  0  0  0  0  0  0  0  0
   23.0008  129.6042   -3.0422 H   0  0  0  0  0  0  0  0  0  0  0  0
   22.6019  128.0976   -3.5297 H   0  0  0  0  0  0  0  0  0  0  0  0
   22.7566  129.2967   -4.6273 H   0  0  0  0  0  0  0  0  0  0  0  0
   19.5991  130.4884   -2.5446 H   0  0  0  0  0  0  0  0  0  0  0  0
   20.9842  131.5233   -0.9983 H   0  0  0  0  0  0  0  0  0  0  0  0
   22.0497  131.7021   -2.2229 H   0  0  0  0  0  0  0  0  0  0  0  0
   21.8732  129.9450    0.8982 H   0  0  0  0  0  0  0  0  0  0  0  0
   22.4560  131.6571    2.5850 H   0  0  0  0  0  0  0  0  0  0  0  0
   23.5483  132.8274    2.2626 H   0  0  0  0  0  0  0  0  0  0  0  0
  1  2  1  0  0  0  0
  2  3  1  0  0  0  0
  2  4  2  0  0  0  0
  4  5  1  0  0  0  0
  5  6  1  0  0  0  0
  6  7  1  0  0  0  0
  7  8  1  0  0  0  0
  7  9  2  0  0  0  0
  9 10  1  0  0  0  0
 10 11  1  0  0  0  0
 11 12  1  0  0  0  0
 12 13  1  0  0  0  0
 12 14  2  0  0  0  0
 14 15  1  0  0  0  0
 15 16  1  0  0  0  0
 16 17  1  0  0  0  0
 17 18  1  0  0  0  0
 18 19  2  0  0  0  0
 18 20  1  0  0  0  0
 20 21  1  0  0  0  0
 21 22  2  0  0  0  0
 21 23  1  0  0  0  0
 21 24  1  0  0  0  0
  1 25  1  0  0  0  0
  1 26  1  0  0  0  0
  1 27  1  0  0  0  0
  3 28  1  0  0  0  0
  3 29  1  0  0  0  0
  3 30  1  0  0  0  0
  4 31  1  0  0  0  0
  5 32  1  0  0  0  0
  5 33  1  0  0  0  0
  6 34  1  0  0  0  0
  6 35  1  0  0  0  0
  8 36  1  0  0  0  0
  8 37  1  0  0  0  0
  8 38  1  0  0  0  0
  9 39  1  0  0  0  0
 10 40  1  0  0  0  0
 10 41  1  0  0  0  0
 11 42  1  0  0  0  0
 11 43  1  0  0  0  0
 13 44  1  0  0  0  0
 13 45  1  0  0  0  0
 13 46  1  0  0  0  0
 14 47  1  0  0  0  0
 15 48  1  0  0  0  0
 15 49  1  0  0  0  0
 17 50  1  0  0  0  0
 20 51  1  0  0  0  0
 20 52  1  0  0  0  0
M  CHG  2  23  -1  24  -1
M  END
>  <docking-score>
-38.33

$$$$
2IEJ_FII_2
foFlexX   03192112123D 1   1.00000     0.00000     0
FlexX 4.5.0 fol007
 52 51  0  0  0  0            999 V2000
   12.2223  127.7945   -4.4576 C   0  0  0  0  0  0  0  0  0  0  0  0
   12.8047  127.4554   -5.8094 C   0  0  0  0  0  0  0  0  0  0  0  0
   11.9223  127.4789   -7.0306 C   0  0  0  0  0  0  0  0  0  0  0  0
   14.1062  127.1286   -5.9554 C   0  0  0  0  0  0  0  0  0  0  0  0
   15.0765  127.0745   -4.8001 C   0  0  0  0  0  0  0  0  0  0  0  0
   15.1902  128.4362   -4.1052 C   0  0  0  0  0  0  0  0  0  0  0  0
   16.5674  128.6231   -3.5063 C   0  0  0  0  0  0  0  0  0  0  0  0
   16.7648  129.6588   -2.4236 C   0  0  0  0  0  0  0  0  0  0  0  0
   17.5907  127.8655   -3.9641 C   0  0  0  0  0  0  0  0  0  0  0  0
   19.0081  127.9503   -3.4560 C   0  0  0  0  0  0  0  0  0  0  0  0
   19.8139  128.9761   -4.2610 C   0  0  0  0  0  0  0  0  0  0  0  0
   20.8907  129.6061   -3.4054 C   0  0  0  0  0  0  0  0  0  0  0  0
   22.3290  129.1847   -3.5932 C   0  0  0  0  0  0  0  0  0  0  0  0
   20.5426  130.5288   -2.4815 C   0  0  0  0  0  0  0  0  0  0  0  0
   21.5367  131.2122   -1.5831 C   0  0  0  0  0  0  0  0  0  0  0  0
   22.3594  130.2446   -0.9770 O   0  0  0  0  0  0  0  0  0  0  0  0
   22.4498  130.5815    0.3370 N   0  0  0  0  0  0  0  0  0  0  0  0
   23.3469  131.6094    0.7693 C   0  0  0  0  0  0  0  0  0  0  0  0
   24.0645  132.2136   -0.0725 O   0  0  0  0  0  0  0  0  0  0  0  0
   23.4780  131.9331    2.2234 C   0  0  0  0  0  0  0  0  0  0  0  0
   24.7337  130.8631    2.9861 P   0  0  0  0  0  0  0  0  0  0  0  0
   24.1072  130.0494    4.0955 O   0  0  0  0  0  0  0  0  0  0  0  0
   25.3767  129.8218    1.8192 O   0  5  0  0  0  0  0  0  0  0  0  0
   25.9716  131.8214    3.6248 O   0  5  0  0  0  0  0  0  0  0  0  0
   12.9373  127.7314   -3.7613 H   0  0  0  0  0  0  0  0  0  0  0  0
   11.8563  128.7249   -4.4762 H   0  0  0  0  0  0  0  0  0  0  0  0
   11.4878  127.1516   -4.2404 H   0  0  0  0  0  0  0  0  0  0  0  0
   12.4612  127.2319   -7.8360 H   0  0  0  0  0  0  0  0  0  0  0  0
   11.1758  126.8236   -6.9152 H   0  0  0  0  0  0  0  0  0  0  0  0
   11.5444  128.3969   -7.1512 H   0  0  0  0  0  0  0  0  0  0  0  0
   14.4434  126.9122   -6.8717 H   0  0  0  0  0  0  0  0  0  0  0  0
   15.9771  126.8074   -5.1432 H   0  0  0  0  0  0  0  0  0  0  0  0
   14.7575  126.3964   -4.1381 H   0  0  0  0  0  0  0  0  0  0  0  0
   14.5065  128.4906   -3.3775 H   0  0  0  0  0  0  0  0  0  0  0  0
   15.0231  129.1603   -4.7744 H   0  0  0  0  0  0  0  0  0  0  0  0
   17.7240  129.6670   -2.1410 H   0  0  0  0  0  0  0  0  0  0  0  0
   16.5132  130.5606   -2.7751 H   0  0  0  0  0  0  0  0  0  0  0  0
   16.1878  129.4343   -1.6383 H   0  0  0  0  0  0  0  0  0  0  0  0
   17.3938  127.2047   -4.6883 H   0  0  0  0  0  0  0  0  0  0  0  0
   19.4413  127.0530   -3.5413 H   0  0  0  0  0  0  0  0  0  0  0  0
   18.9959  128.2244   -2.4944 H   0  0  0  0  0  0  0  0  0  0  0  0
   19.1975  129.6910   -4.5910 H   0  0  0  0  0  0  0  0  0  0  0  0
   20.2411  128.5183   -5.0407 H   0  0  0  0  0  0  0  0  0  0  0  0
   22.9096  129.6852   -2.9510 H   0  0  0  0  0  0  0  0  0  0  0  0
   22.4136  128.2028   -3.4234 H   0  0  0  0  0  0  0  0  0  0  0  0
   22.6161  129.3870   -4.5295 H   0  0  0  0  0  0  0  0  0  0  0  0
   19.5761  130.7690   -2.3905 H   0  0  0  0  0  0  0  0  0  0  0  0
   21.0500  131.7264   -0.8768 H   0  0  0  0  0  0  0  0  0  0  0  0
   22.0994  131.8382   -2.1230 H   0  0  0  0  0  0  0  0  0  0  0  0
   21.8829  130.1055    1.0093 H   0  0  0  0  0  0  0  0  0  0  0  0
   22.5985  131.7866    2.6761 H   0  0  0  0  0  0  0  0  0  0  0  0
   23.7507  132.8897    2.3267 H   0  0  0  0  0  0  0  0  0  0  0  0
  1  2  1  0  0  0  0
  2  3  1  0  0  0  0
  2  4  2  0  0  0  0
  4  5  1  0  0  0  0
  5  6  1  0  0  0  0
  6  7  1  0  0  0  0
  7  8  1  0  0  0  0
  7  9  2  0  0  0  0
  9 10  1  0  0  0  0
 10 11  1  0  0  0  0
 11 12  1  0  0  0  0
 12 13  1  0  0  0  0
 12 14  2  0  0  0  0
 14 15  1  0  0  0  0
 15 16  1  0  0  0  0
 16 17  1  0  0  0  0
 17 18  1  0  0  0  0
 18 19  2  0  0  0  0
 18 20  1  0  0  0  0
 20 21  1  0  0  0  0
 21 22  2  0  0  0  0
 21 23  1  0  0  0  0
 21 24  1  0  0  0  0
  1 25  1  0  0  0  0
  1 26  1  0  0  0  0
  1 27  1  0  0  0  0
  3 28  1  0  0  0  0
  3 29  1  0  0  0  0
  3 30  1  0  0  0  0
  4 31  1  0  0  0  0
  5 32  1  0  0  0  0
  5 33  1  0  0  0  0
  6 34  1  0  0  0  0
  6 35  1  0  0  0  0
  8 36  1  0  0  0  0
  8 37  1  0  0  0  0
  8 38  1  0  0  0  0
  9 39  1  0  0  0  0
 10 40  1  0  0  0  0
 10 41  1  0  0  0  0
 11 42  1  0  0  0  0
 11 43  1  0  0  0  0
 13 44  1  0  0  0  0
 13 45  1  0  0  0  0
 13 46  1  0  0  0  0
 14 47  1  0  0  0  0
 15 48  1  0  0  0  0
 15 49  1  0  0  0  0
 17 50  1  0  0  0  0
 20 51  1  0  0  0  0
 20 52  1  0  0  0  0
M  CHG  2  23  -1  24  -1
M  END
>  <docking-score>
-37.21

$$$$
2IEJ_FII_3
foFlexX   03192112123D 1   1.00000     0.00000     0
FlexX 4.5.0 fol007
 52 51  0  0  0  0            999 V2000
   12.6146  126.9345   -4.8261 C   0  0  0  0  0  0  0  0  0  0  0  0
   12.9538  127.7835   -6.0285 C   0  0  0  0  0  0  0  0  0  0  0  0
   12.1353  127.6573   -7.2874 C   0  0  0  0  0  0  0  0  0  0  0  0
   13.9796  128.6605   -6.0066 C   0  0  0  0  0  0  0  0  0  0  0  0
   14.8621  128.8658   -4.7991 C   0  0  0  0  0  0  0  0  0  0  0  0
   15.5754  127.5674   -4.4045 C   0  0  0  0  0  0  0  0  0  0  0  0
   16.9134  127.8608   -3.7609 C   0  0  0  0  0  0  0  0  0  0  0  0
   17.0072  128.9571   -2.7250 C   0  0  0  0  0  0  0  0  0  0  0  0
   17.9952  127.1411   -4.1383 C   0  0  0  0  0  0  0  0  0  0  0  0
   19.3827  127.3305   -3.5786 C   0  0  0  0  0  0  0  0  0  0  0  0
   20.1651  128.3603   -4.4015 C   0  0  0  0  0  0  0  0  0  0  0  0
   21.1682  129.0909   -3.5364 C   0  0  0  0  0  0  0  0  0  0  0  0
   22.6341  128.7431   -3.6446 C   0  0  0  0  0  0  0  0  0  0  0  0
   20.7308  130.0359   -2.6751 C   0  0  0  0  0  0  0  0  0  0  0  0
   21.6466  130.8172   -1.7732 C   0  0  0  0  0  0  0  0  0  0  0  0
   22.4942  129.9282   -1.0864 O   0  0  0  0  0  0  0  0  0  0  0  0
   22.5096  130.3328    0.2114 N   0  0  0  0  0  0  0  0  0  0  0  0
   23.3298  131.4296    0.6268 C   0  0  0  0  0  0  0  0  0  0  0  0
   24.0489  132.0321   -0.2150 O   0  0  0  0  0  0  0  0  0  0  0  0
   23.3805  131.8301    2.0668 C   0  0  0  0  0  0  0  0  0  0  0  0
   24.6588  130.8711    2.9325 P   0  0  0  0  0  0  0  0  0  0  0  0
   24.0307  130.0777    4.0557 O   0  0  0  0  0  0  0  0  0  0  0  0
   25.4072  129.8127    1.8466 O   0  5  0  0  0  0  0  0  0  0  0  0
   25.8140  131.9277    3.5711 O   0  5  0  0  0  0  0  0  0  0  0  0
   13.2505  127.1407   -4.0824 H   0  0  0  0  0  0  0  0  0  0  0  0
   11.6802  127.1333   -4.5306 H   0  0  0  0  0  0  0  0  0  0  0  0
   12.6886  125.9673   -5.0694 H   0  0  0  0  0  0  0  0  0  0  0  0
   12.4906  128.2848   -7.9802 H   0  0  0  0  0  0  0  0  0  0  0  0
   12.1903  126.7188   -7.6280 H   0  0  0  0  0  0  0  0  0  0  0  0
   11.1819  127.8847   -7.0893 H   0  0  0  0  0  0  0  0  0  0  0  0
   14.1635  129.1995   -6.8286 H   0  0  0  0  0  0  0  0  0  0  0  0
   14.2990  129.1743   -4.0324 H   0  0  0  0  0  0  0  0  0  0  0  0
   15.5474  129.5626   -5.0109 H   0  0  0  0  0  0  0  0  0  0  0  0
   15.7206  127.0117   -5.2231 H   0  0  0  0  0  0  0  0  0  0  0  0
   15.0038  127.0637   -3.7567 H   0  0  0  0  0  0  0  0  0  0  0  0
   17.9515  129.0333   -2.4049 H   0  0  0  0  0  0  0  0  0  0  0  0
   16.7220  129.8251   -3.1315 H   0  0  0  0  0  0  0  0  0  0  0  0
   16.4102  128.7384   -1.9532 H   0  0  0  0  0  0  0  0  0  0  0  0
   17.8659  126.4360   -4.8355 H   0  0  0  0  0  0  0  0  0  0  0  0
   19.8675  126.4562   -3.6009 H   0  0  0  0  0  0  0  0  0  0  0  0
   19.3143  127.6497   -2.6334 H   0  0  0  0  0  0  0  0  0  0  0  0
   19.5253  129.0223   -4.7918 H   0  0  0  0  0  0  0  0  0  0  0  0
   20.6497  127.8902   -5.1393 H   0  0  0  0  0  0  0  0  0  0  0  0
   23.1584  129.3062   -3.0058 H   0  0  0  0  0  0  0  0  0  0  0  0
   22.7648  127.7770   -3.4221 H   0  0  0  0  0  0  0  0  0  0  0  0
   22.9497  128.9158   -4.5777 H   0  0  0  0  0  0  0  0  0  0  0  0
   19.7497  130.2251   -2.6353 H   0  0  0  0  0  0  0  0  0  0  0  0
   21.1028  131.3366   -1.1140 H   0  0  0  0  0  0  0  0  0  0  0  0
   22.1970  131.4472   -2.3211 H   0  0  0  0  0  0  0  0  0  0  0  0
   21.9412  129.8585    0.8837 H   0  0  0  0  0  0  0  0  0  0  0  0
   22.4917  131.6559    2.4906 H   0  0  0  0  0  0  0  0  0  0  0  0
   23.5959  132.8044    2.1323 H   0  0  0  0  0  0  0  0  0  0  0  0
  1  2  1  0  0  0  0
  2  3  1  0  0  0  0
  2  4  2  0  0  0  0
  4  5  1  0  0  0  0
  5  6  1  0  0  0  0
  6  7  1  0  0  0  0
  7  8  1  0  0  0  0
  7  9  2  0  0  0  0
  9 10  1  0  0  0  0
 10 11  1  0  0  0  0
 11 12  1  0  0  0  0
 12 13  1  0  0  0  0
 12 14  2  0  0  0  0
 14 15  1  0  0  0  0
 15 16  1  0  0  0  0
 16 17  1  0  0  0  0
 17 18  1  0  0  0  0
 18 19  2  0  0  0  0
 18 20  1  0  0  0  0
 20 21  1  0  0  0  0
 21 22  2  0  0  0  0
 21 23  1  0  0  0  0
 21 24  1  0  0  0  0
  1 25  1  0  0  0  0
  1 26  1  0  0  0  0
  1 27  1  0  0  0  0
  3 28  1  0  0  0  0
  3 29  1  0  0  0  0
  3 30  1  0  0  0  0
  4 31  1  0  0  0  0
  5 32  1  0  0  0  0
  5 33  1  0  0  0  0
  6 34  1  0  0  0  0
  6 35  1  0  0  0  0
  8 36  1  0  0  0  0
  8 37  1  0  0  0  0
  8 38  1  0  0  0  0
  9 39  1  0  0  0  0
 10 40  1  0  0  0  0
 10 41  1  0  0  0  0
 11 42  1  0  0  0  0
 11 43  1  0  0  0  0
 13 44  1  0  0  0  0
 13 45  1  0  0  0  0
 13 46  1  0  0  0  0
 14 47  1  0  0  0  0
 15 48  1  0  0  0  0
 15 49  1  0  0  0  0
 17 50  1  0  0  0  0
 20 51  1  0  0  0  0
 20 52  1  0  0  0  0
M  CHG  2  23  -1  24  -1
M  END
>  <docking-score>
-37.19

$$$$
1LD8_FPP_1
foFlexX   03192112123D 1   1.00000     0.00000     0
FlexX 4.5.0 fol007
 49 48  0  0  0  0            999 V2000
   14.0109  130.7035   -2.8019 C   0  0  0  0  0  0  0  0  0  0  0  0
   14.5936  131.9726   -3.3681 C   0  0  0  0  0  0  0  0  0  0  0  0
   13.7197  133.1975   -3.5042 C   0  0  0  0  0  0  0  0  0  0  0  0
   15.8887  131.9705   -3.7543 C   0  0  0  0  0  0  0  0  0  0  0  0
   16.8047  130.7760   -3.6588 C   0  0  0  0  0  0  0  0  0  0  0  0
   16.9410  130.3108   -2.2049 C   0  0  0  0  0  0  0  0  0  0  0  0
   18.2963  129.6825   -1.9656 C   0  0  0  0  0  0  0  0  0  0  0  0
   18.4866  128.7826   -0.7673 C   0  0  0  0  0  0  0  0  0  0  0  0
   19.3067  129.9575   -2.8217 C   0  0  0  0  0  0  0  0  0  0  0  0
   20.7066  129.4022   -2.7048 C   0  0  0  0  0  0  0  0  0  0  0  0
   21.7506  130.5176   -2.5523 C   0  0  0  0  0  0  0  0  0  0  0  0
   21.9945  130.8685   -1.0987 C   0  0  0  0  0  0  0  0  0  0  0  0
   20.8120  131.0229   -0.1706 C   0  0  0  0  0  0  0  0  0  0  0  0
   23.2642  131.0247   -0.6612 C   0  0  0  0  0  0  0  0  0  0  0  0
   23.6237  131.3722    0.7571 C   0  0  0  0  0  0  0  0  0  0  0  0
   23.3451  130.2719    1.5890 O   0  0  0  0  0  0  0  0  0  0  0  0
   24.6665  130.0435    2.6451 P   0  0  0  0  0  0  0  0  0  0  0  0
   25.2494  128.6667    2.4194 O   0  0  0  0  0  0  0  0  0  0  0  0
   25.8693  131.1989    2.3545 O   0  5  0  0  0  0  0  0  0  0  0  0
   24.1577  130.1489    4.2653 O   0  0  0  0  0  0  0  0  0  0  0  0
   25.0548  131.3910    5.0068 P   0  0  0  0  0  0  0  0  0  0  0  0
   26.5332  131.0848    4.9211 O   0  0  0  0  0  0  0  0  0  0  0  0
   24.7515  132.8377    4.1863 O   0  5  0  0  0  0  0  0  0  0  0  0
   24.6093  131.5861    6.6282 O   0  5  0  0  0  0  0  0  0  0  0  0
   14.7121  129.9906   -2.7910 H   0  0  0  0  0  0  0  0  0  0  0  0
   13.6910  130.8707   -1.8693 H   0  0  0  0  0  0  0  0  0  0  0  0
   13.2429  130.4071   -3.3695 H   0  0  0  0  0  0  0  0  0  0  0  0
   14.2515  133.9436   -3.9049 H   0  0  0  0  0  0  0  0  0  0  0  0
   12.9414  132.9877   -4.0959 H   0  0  0  0  0  0  0  0  0  0  0  0
   13.3878  133.4721   -2.6017 H   0  0  0  0  0  0  0  0  0  0  0  0
   16.2651  132.8180   -4.1286 H   0  0  0  0  0  0  0  0  0  0  0  0
   17.7073  131.0260   -4.0092 H   0  0  0  0  0  0  0  0  0  0  0  0
   16.4288  130.0297   -4.2081 H   0  0  0  0  0  0  0  0  0  0  0  0
   16.2283  129.6374   -2.0082 H   0  0  0  0  0  0  0  0  0  0  0  0
   16.8328  131.0978   -1.5975 H   0  0  0  0  0  0  0  0  0  0  0  0
   19.4326  128.4598   -0.7398 H   0  0  0  0  0  0  0  0  0  0  0  0
   18.2842  129.2931    0.0684 H   0  0  0  0  0  0  0  0  0  0  0  0
   17.8689  127.9993   -0.8373 H   0  0  0  0  0  0  0  0  0  0  0  0
   19.1132  130.5722   -3.5864 H   0  0  0  0  0  0  0  0  0  0  0  0
   20.9151  128.8738   -3.5277 H   0  0  0  0  0  0  0  0  0  0  0  0
   20.7521  128.8045   -1.9044 H   0  0  0  0  0  0  0  0  0  0  0  0
   21.4251  131.3327   -3.0314 H   0  0  0  0  0  0  0  0  0  0  0  0
   22.6112  130.2127   -2.9601 H   0  0  0  0  0  0  0  0  0  0  0  0
   21.1367  131.2443    0.7490 H   0  0  0  0  0  0  0  0  0  0  0  0
   20.2221  131.7592   -0.5020 H   0  0  0  0  0  0  0  0  0  0  0  0
   20.2948  130.1675   -0.1445 H   0  0  0  0  0  0  0  0  0  0  0  0
   24.0074  130.9020   -1.3189 H   0  0  0  0  0  0  0  0  0  0  0  0
   23.0858  132.1609    1.0546 H   0  0  0  0  0  0  0  0  0  0  0  0
   24.5974  131.5935    0.8105 H   0  0  0  0  0  0  0  0  0  0  0  0
  1  2  1  0  0  0  0
  2  3  1  0  0  0  0
  2  4  2  0  0  0  0
  4  5  1  0  0  0  0
  5  6  1  0  0  0  0
  6  7  1  0  0  0  0
  7  8  1  0  0  0  0
  7  9  2  0  0  0  0
  9 10  1  0  0  0  0
 10 11  1  0  0  0  0
 11 12  1  0  0  0  0
 12 13  1  0  0  0  0
 12 14  2  0  0  0  0
 14 15  1  0  0  0  0
 15 16  1  0  0  0  0
 16 17  1  0  0  0  0
 17 18  2  0  0  0  0
 17 19  1  0  0  0  0
 17 20  1  0  0  0  0
 20 21  1  0  0  0  0
 21 22  2  0  0  0  0
 21 23  1  0  0  0  0
 21 24  1  0  0  0  0
  1 25  1  0  0  0  0
  1 26  1  0  0  0  0
  1 27  1  0  0  0  0
  3 28  1  0  0  0  0
  3 29  1  0  0  0  0
  3 30  1  0  0  0  0
  4 31  1  0  0  0  0
  5 32  1  0  0  0  0
  5 33  1  0  0  0  0
  6 34  1  0  0  0  0
  6 35  1  0  0  0  0
  8 36  1  0  0  0  0
  8 37  1  0  0  0  0
  8 38  1  0  0  0  0
  9 39  1  0  0  0  0
 10 40  1  0  0  0  0
 10 41  1  0  0  0  0
 11 42  1  0  0  0  0
 11 43  1  0  0  0  0
 13 44  1  0  0  0  0
 13 45  1  0  0  0  0
 13 46  1  0  0  0  0
 14 47  1  0  0  0  0
 15 48  1  0  0  0  0
 15 49  1  0  0  0  0
M  CHG  3  19  -1  23  -1  24  -1
M  END
>  <docking-score>
-40.64

$$$$
1LD8_FPP_2
foFlexX   03192112123D 1   1.00000     0.00000     0
FlexX 4.5.0 fol007
 49 48  0  0  0  0            999 V2000
   16.8218  127.8889   -3.3331 C   0  0  0  0  0  0  0  0  0  0  0  0
   17.1052  129.0589   -2.4268 C   0  0  0  0  0  0  0  0  0  0  0  0
   16.0929  130.1747   -2.3124 C   0  0  0  0  0  0  0  0  0  0  0  0
   18.2746  129.0808   -1.7497 C   0  0  0  0  0  0  0  0  0  0  0  0
   19.3297  128.0065   -1.8360 C   0  0  0  0  0  0  0  0  0  0  0  0
   19.8370  127.8575   -3.2745 C   0  0  0  0  0  0  0  0  0  0  0  0
   21.0177  128.7693   -3.5260 C   0  0  0  0  0  0  0  0  0  0  0  0
   20.8201  130.0120   -4.3618 C   0  0  0  0  0  0  0  0  0  0  0  0
   22.2233  128.4381   -3.0102 C   0  0  0  0  0  0  0  0  0  0  0  0
   23.4839  129.2526   -3.1814 C   0  0  0  0  0  0  0  0  0  0  0  0
   23.3307  130.6670   -2.6041 C   0  0  0  0  0  0  0  0  0  0  0  0
   23.7392  130.7297   -1.1464 C   0  0  0  0  0  0  0  0  0  0  0  0
   25.1564  130.3711   -0.7634 C   0  0  0  0  0  0  0  0  0  0  0  0
   22.8311  131.1155   -0.2221 C   0  0  0  0  0  0  0  0  0  0  0  0
   23.1250  131.2140    1.2494 C   0  0  0  0  0  0  0  0  0  0  0  0
   23.2901  129.9198    1.7770 O   0  0  0  0  0  0  0  0  0  0  0  0
   24.6645  129.9193    2.7892 P   0  0  0  0  0  0  0  0  0  0  0  0
   25.2992  128.5471    2.7629 O   0  0  0  0  0  0  0  0  0  0  0  0
   25.8000  131.0554    2.2544 O   0  5  0  0  0  0  0  0  0  0  0  0
   24.2212  130.2718    4.3937 O   0  0  0  0  0  0  0  0  0  0  0  0
   25.0919  131.6523    4.8769 P   0  0  0  0  0  0  0  0  0  0  0  0
   26.5776  131.3923    4.7690 O   0  0  0  0  0  0  0  0  0  0  0  0
   24.6883  132.9310    3.8471 O   0  5  0  0  0  0  0  0  0  0  0  0
   24.7076  132.0958    6.4647 O   0  5  0  0  0  0  0  0  0  0  0  0
   17.5909  127.2505   -3.3037 H   0  0  0  0  0  0  0  0  0  0  0  0
   15.9909  127.4240   -3.0273 H   0  0  0  0  0  0  0  0  0  0  0  0
   16.6954  128.2157   -4.2697 H   0  0  0  0  0  0  0  0  0  0  0  0
   16.4369  130.8738   -1.6855 H   0  0  0  0  0  0  0  0  0  0  0  0
   15.9410  130.5806   -3.2135 H   0  0  0  0  0  0  0  0  0  0  0  0
   15.2309  129.8081   -1.9622 H   0  0  0  0  0  0  0  0  0  0  0  0
   18.4524  129.8619   -1.1512 H   0  0  0  0  0  0  0  0  0  0  0  0
   18.9380  127.1371   -1.5347 H   0  0  0  0  0  0  0  0  0  0  0  0
   20.0959  128.2507   -1.2417 H   0  0  0  0  0  0  0  0  0  0  0  0
   19.1000  128.0934   -3.9079 H   0  0  0  0  0  0  0  0  0  0  0  0
   20.1168  126.9096   -3.4268 H   0  0  0  0  0  0  0  0  0  0  0  0
   21.6900  130.4978   -4.4477 H   0  0  0  0  0  0  0  0  0  0  0  0
   20.4913  129.7540   -5.2703 H   0  0  0  0  0  0  0  0  0  0  0  0
   20.1482  130.6070   -3.9207 H   0  0  0  0  0  0  0  0  0  0  0  0
   22.2845  127.5940   -2.4775 H   0  0  0  0  0  0  0  0  0  0  0  0
   23.6947  129.3219   -4.1564 H   0  0  0  0  0  0  0  0  0  0  0  0
   24.2348  128.7901   -2.7100 H   0  0  0  0  0  0  0  0  0  0  0  0
   22.3740  130.9468   -2.6840 H   0  0  0  0  0  0  0  0  0  0  0  0
   23.9064  131.2943   -3.1285 H   0  0  0  0  0  0  0  0  0  0  0  0
   25.2697  130.4702    0.2252 H   0  0  0  0  0  0  0  0  0  0  0  0
   25.3437  129.4249   -1.0271 H   0  0  0  0  0  0  0  0  0  0  0  0
   25.7935  130.9809   -1.2347 H   0  0  0  0  0  0  0  0  0  0  0  0
   21.9105  131.3490   -0.5351 H   0  0  0  0  0  0  0  0  0  0  0  0
   22.3645  131.6692    1.7125 H   0  0  0  0  0  0  0  0  0  0  0  0
   23.9634  131.7411    1.3883 H   0  0  0  0  0  0  0  0  0  0  0  0
  1  2  1  0  0  0  0
  2  3  1  0  0  0  0
  2  4  2  0  0  0  0
  4  5  1  0  0  0  0
  5  6  1  0  0  0  0
  6  7  1  0  0  0  0
  7  8  1  0  0  0  0
  7  9  2  0  0  0  0
  9 10  1  0  0  0  0
 10 11  1  0  0  0  0
 11 12  1  0  0  0  0
 12 13  1  0  0  0  0
 12 14  2  0  0  0  0
 14 15  1  0  0  0  0
 15 16  1  0  0  0  0
 16 17  1  0  0  0  0
 17 18  2  0  0  0  0
 17 19  1  0  0  0  0
 17 20  1  0  0  0  0
 20 21  1  0  0  0  0
 21 22  2  0  0  0  0
 21 23  1  0  0  0  0
 21 24  1  0  0  0  0
  1 25  1  0  0  0  0
  1 26  1  0  0  0  0
  1 27  1  0  0  0  0
  3 28  1  0  0  0  0
  3 29  1  0  0  0  0
  3 30  1  0  0  0  0
  4 31  1  0  0  0  0
  5 32  1  0  0  0  0
  5 33  1  0  0  0  0
  6 34  1  0  0  0  0
  6 35  1  0  0  0  0
  8 36  1  0  0  0  0
  8 37  1  0  0  0  0
  8 38  1  0  0  0  0
  9 39  1  0  0  0  0
 10 40  1  0  0  0  0
 10 41  1  0  0  0  0
 11 42  1  0  0  0  0
 11 43  1  0  0  0  0
 13 44  1  0  0  0  0
 13 45  1  0  0  0  0
 13 46  1  0  0  0  0
 14 47  1  0  0  0  0
 15 48  1  0  0  0  0
 15 49  1  0  0  0  0
M  CHG  3  19  -1  23  -1  24  -1
M  END
>  <docking-score>
-40.60

$$$$
1LD8_FPP_3
foFlexX   03192112123D 1   1.00000     0.00000     0
FlexX 4.5.0 fol007
 49 48  0  0  0  0            999 V2000
   16.0187  130.8823   -2.1867 C   0  0  0  0  0  0  0  0  0  0  0  0
   16.0792  129.4280   -2.5764 C   0  0  0  0  0  0  0  0  0  0  0  0
   15.1906  128.9167   -3.6862 C   0  0  0  0  0  0  0  0  0  0  0  0
   16.9241  128.6154   -1.9038 C   0  0  0  0  0  0  0  0  0  0  0  0
   17.8219  129.0635   -0.7777 C   0  0  0  0  0  0  0  0  0  0  0  0
   19.0979  128.2160   -0.7302 C   0  0  0  0  0  0  0  0  0  0  0  0
   19.8719  128.3354   -2.0246 C   0  0  0  0  0  0  0  0  0  0  0  0
   19.3778  127.5962   -3.2458 C   0  0  0  0  0  0  0  0  0  0  0  0
   20.9959  129.0872   -2.0493 C   0  0  0  0  0  0  0  0  0  0  0  0
   21.8643  129.2940   -3.2679 C   0  0  0  0  0  0  0  0  0  0  0  0
   22.5620  130.6614   -3.2444 C   0  0  0  0  0  0  0  0  0  0  0  0
   23.4559  130.8190   -2.0312 C   0  0  0  0  0  0  0  0  0  0  0  0
   24.9546  130.7340   -2.2054 C   0  0  0  0  0  0  0  0  0  0  0  0
   22.8944  131.0431   -0.8218 C   0  0  0  0  0  0  0  0  0  0  0  0
   23.6822  131.2148    0.4475 C   0  0  0  0  0  0  0  0  0  0  0  0
   23.3077  130.2152    1.3645 O   0  0  0  0  0  0  0  0  0  0  0  0
   24.5804  130.0011    2.4816 P   0  0  0  0  0  0  0  0  0  0  0  0
   25.0770  128.5752    2.4003 O   0  0  0  0  0  0  0  0  0  0  0  0
   25.8650  131.0465    2.1303 O   0  5  0  0  0  0  0  0  0  0  0  0
   24.0338  130.2865    4.0674 O   0  0  0  0  0  0  0  0  0  0  0  0
   24.9898  131.5318    4.7252 P   0  0  0  0  0  0  0  0  0  0  0  0
   26.4464  131.1260    4.7181 O   0  0  0  0  0  0  0  0  0  0  0  0
   24.8065  132.9136    3.7685 O   0  5  0  0  0  0  0  0  0  0  0  0
   24.5121  131.9024    6.3064 O   0  5  0  0  0  0  0  0  0  0  0  0
   16.6553  131.0526   -1.4345 H   0  0  0  0  0  0  0  0  0  0  0  0
   16.2709  131.4484   -2.9715 H   0  0  0  0  0  0  0  0  0  0  0  0
   15.0898  131.1110   -1.8955 H   0  0  0  0  0  0  0  0  0  0  0  0
   15.3431  127.9362   -3.8105 H   0  0  0  0  0  0  0  0  0  0  0  0
   14.2330  129.0774   -3.4473 H   0  0  0  0  0  0  0  0  0  0  0  0
   15.4076  129.3980   -4.5355 H   0  0  0  0  0  0  0  0  0  0  0  0
   16.9561  127.6522   -2.1706 H   0  0  0  0  0  0  0  0  0  0  0  0
   17.3327  128.9687    0.0893 H   0  0  0  0  0  0  0  0  0  0  0  0
   18.0698  130.0221   -0.9175 H   0  0  0  0  0  0  0  0  0  0  0  0
   18.8500  127.2583   -0.5838 H   0  0  0  0  0  0  0  0  0  0  0  0
   19.6724  128.5308    0.0254 H   0  0  0  0  0  0  0  0  0  0  0  0
   19.9999  127.7630   -4.0108 H   0  0  0  0  0  0  0  0  0  0  0  0
   19.3442  126.6159   -3.0511 H   0  0  0  0  0  0  0  0  0  0  0  0
   18.4623  127.9203   -3.4839 H   0  0  0  0  0  0  0  0  0  0  0  0
   21.2718  129.5382   -1.2004 H   0  0  0  0  0  0  0  0  0  0  0  0
   21.2928  129.2361   -4.0864 H   0  0  0  0  0  0  0  0  0  0  0  0
   22.5598  128.5761   -3.2955 H   0  0  0  0  0  0  0  0  0  0  0  0
   21.8660  131.3793   -3.2284 H   0  0  0  0  0  0  0  0  0  0  0  0
   23.1183  130.7548   -4.0701 H   0  0  0  0  0  0  0  0  0  0  0  0
   25.4011  130.8662   -1.3205 H   0  0  0  0  0  0  0  0  0  0  0  0
   25.1973  129.8352   -2.5703 H   0  0  0  0  0  0  0  0  0  0  0  0
   25.2571  131.4445   -2.8408 H   0  0  0  0  0  0  0  0  0  0  0  0
   21.8974  131.0979   -0.7684 H   0  0  0  0  0  0  0  0  0  0  0  0
   23.4932  132.1153    0.8390 H   0  0  0  0  0  0  0  0  0  0  0  0
   24.6590  131.1364    0.2480 H   0  0  0  0  0  0  0  0  0  0  0  0
  1  2  1  0  0  0  0
  2  3  1  0  0  0  0
  2  4  2  0  0  0  0
  4  5  1  0  0  0  0
  5  6  1  0  0  0  0
  6  7  1  0  0  0  0
  7  8  1  0  0  0  0
  7  9  2  0  0  0  0
  9 10  1  0  0  0  0
 10 11  1  0  0  0  0
 11 12  1  0  0  0  0
 12 13  1  0  0  0  0
 12 14  2  0  0  0  0
 14 15  1  0  0  0  0
 15 16  1  0  0  0  0
 16 17  1  0  0  0  0
 17 18  2  0  0  0  0
 17 19  1  0  0  0  0
 17 20  1  0  0  0  0
 20 21  1  0  0  0  0
 21 22  2  0  0  0  0
 21 23  1  0  0  0  0
 21 24  1  0  0  0  0
  1 25  1  0  0  0  0
  1 26  1  0  0  0  0
  1 27  1  0  0  0  0
  3 28  1  0  0  0  0
  3 29  1  0  0  0  0
  3 30  1  0  0  0  0
  4 31  1  0  0  0  0
  5 32  1  0  0  0  0
  5 33  1  0  0  0  0
  6 34  1  0  0  0  0
  6 35  1  0  0  0  0
  8 36  1  0  0  0  0
  8 37  1  0  0  0  0
  8 38  1  0  0  0  0
  9 39  1  0  0  0  0
 10 40  1  0  0  0  0
 10 41  1  0  0  0  0
 11 42  1  0  0  0  0
 11 43  1  0  0  0  0
 13 44  1  0  0  0  0
 13 45  1  0  0  0  0
 13 46  1  0  0  0  0
 14 47  1  0  0  0  0
 15 48  1  0  0  0  0
 15 49  1  0  0  0  0
M  CHG  3  19  -1  23  -1  24  -1
M  END
>  <docking-score>
-40.59

$$$$
