1JCQ_739_1
foFlexX   03192112113D 1   1.00000     0.00000     0
FlexX 4.5.0 fol007
 74 74  0  0  0  0            999 V2000
   18.2977  133.9085    2.1945 C   0  0  0  0  0  0  0  0  0  0  0  0
   18.3768  132.7719    3.2117 C   0  0  0  0  0  0  0  0  0  0  0  0
   19.3715  131.6373    2.8372 C   0  0  1  0  0  0  0  0  0  0  0  0
   18.8727  130.9476    1.5523 C   0  0  0  0  0  0  0  0  0  0  0  0
   20.8815  132.0656    2.6643 C   0  0  1  0  0  0  0  0  0  0  0  0
   21.0114  133.4730    2.0264 C   0  0  0  0  0  0  0  0  0  0  0  0
   20.8667  133.4124    0.6171 O   0  0  0  0  0  0  0  0  0  0  0  0
   22.0226  133.8883   -0.0598 C   0  0  1  0  0  0  0  0  0  0  0  0
   21.8121  133.8298   -1.5846 C   0  0  0  0  0  0  0  0  0  0  0  0
   20.3639  134.0077   -1.9562 C   0  0  0  0  0  0  0  0  0  0  0  0
   19.5917  134.9402   -1.2718 C   0  0  0  0  0  0  0  0  0  0  0  0
   18.2545  135.0993   -1.6197 C   0  0  0  0  0  0  0  0  0  0  0  0
   17.6964  134.3360   -2.6390 C   0  0  0  0  0  0  0  0  0  0  0  0
   18.4764  133.4052   -3.3180 C   0  0  0  0  0  0  0  0  0  0  0  0
   19.8147  133.2389   -2.9773 C   0  0  0  0  0  0  0  0  0  0  0  0
   22.2547  135.3182    0.3400 C   0  0  0  0  0  0  0  0  0  0  0  0
   21.7233  136.2459   -0.3301 O   0  0  0  0  0  0  0  0  0  0  0  0
   23.1149  135.6273    1.4470 N   0  0  0  0  0  0  0  0  0  0  0  0
   23.4140  137.0043    1.8476 C   0  0  1  0  0  0  0  0  0  0  0  0
   22.1087  137.7424    2.1983 C   0  0  0  0  0  0  0  0  0  0  0  0
   21.7440  137.5993    3.6808 C   0  0  0  0  0  0  0  0  0  0  0  0
   19.9739  137.6534    3.9070 S   0  0  0  0  0  0  0  0  0  0  0  0
   19.5982  137.4842    5.6369 C   0  0  0  0  0  0  0  0  0  0  0  0
   19.4370  138.9659    3.4091 O   0  0  0  0  0  0  0  0  0  0  0  0
   19.3290  136.5286    3.1469 O   0  0  0  0  0  0  0  0  0  0  0  0
   24.3651  136.9912    3.0104 C   0  0  0  0  0  0  0  0  0  0  0  0
   25.4216  137.6766    2.9786 O   0  0  0  0  0  0  0  0  0  0  0  0
   24.0907  136.2054    4.1226 O   0  5  0  0  0  0  0  0  0  0  0  0
   21.7028  131.9956    3.9056 N   0  3  0  0  0  0  0  0  0  0  0  0
   22.3260  133.2495    4.3840 C   0  0  0  0  0  0  0  0  0  0  0  0
   23.1744  133.1241    5.6850 C   0  0  2  0  0  0  0  0  0  0  0  0
   22.3144  132.6406    6.7750 N   0  3  0  0  0  0  0  0  0  0  0  0
   23.8147  134.4722    6.0976 C   0  0  0  0  0  0  0  0  0  0  0  0
   24.1308  135.5239    4.6970 S   0  0  0  0  0  0  0  0  0  0  0  0
   18.0036  133.5449    1.3106 H   0  0  0  0  0  0  0  0  0  0  0  0
   17.6395  134.5924    2.5094 H   0  0  0  0  0  0  0  0  0  0  0  0
   19.1982  134.3324    2.0976 H   0  0  0  0  0  0  0  0  0  0  0  0
   17.4654  132.3705    3.3026 H   0  0  0  0  0  0  0  0  0  0  0  0
   18.6601  133.1580    4.0896 H   0  0  0  0  0  0  0  0  0  0  0  0
   19.3375  130.9586    3.5708 H   0  0  0  0  0  0  0  0  0  0  0  0
   19.4278  130.1355    1.3729 H   0  0  0  0  0  0  0  0  0  0  0  0
   17.9164  130.6789    1.6679 H   0  0  0  0  0  0  0  0  0  0  0  0
   18.9502  131.5811    0.7824 H   0  0  0  0  0  0  0  0  0  0  0  0
   21.2881  131.4209    2.0170 H   0  0  0  0  0  0  0  0  0  0  0  0
   21.9117  133.8489    2.2459 H   0  0  0  0  0  0  0  0  0  0  0  0
   20.3011  134.0683    2.4020 H   0  0  0  0  0  0  0  0  0  0  0  0
   22.8151  133.3336    0.1936 H   0  0  0  0  0  0  0  0  0  0  0  0
   22.1258  132.9418   -1.9209 H   0  0  0  0  0  0  0  0  0  0  0  0
   22.3480  134.5569   -2.0136 H   0  0  0  0  0  0  0  0  0  0  0  0
   19.9930  135.4895   -0.5388 H   0  0  0  0  0  0  0  0  0  0  0  0
   17.6908  135.7670   -1.1335 H   0  0  0  0  0  0  0  0  0  0  0  0
   16.7344  134.4560   -2.8841 H   0  0  0  0  0  0  0  0  0  0  0  0
   18.0750  132.8559   -4.0508 H   0  0  0  0  0  0  0  0  0  0  0  0
   20.3784  132.5710   -3.4632 H   0  0  0  0  0  0  0  0  0  0  0  0
   23.5248  134.8754    1.9634 H   0  0  0  0  0  0  0  0  0  0  0  0
   23.8516  137.4735    1.0806 H   0  0  0  0  0  0  0  0  0  0  0  0
   21.3660  137.3639    1.6458 H   0  0  0  0  0  0  0  0  0  0  0  0
   22.2205  138.7132    1.9862 H   0  0  0  0  0  0  0  0  0  0  0  0
   22.1631  138.3475    4.1951 H   0  0  0  0  0  0  0  0  0  0  0  0
   22.0913  136.7254    4.0209 H   0  0  0  0  0  0  0  0  0  0  0  0
   18.6071  137.5118    5.7670 H   0  0  0  0  0  0  0  0  0  0  0  0
   19.9542  136.6117    5.9716 H   0  0  0  0  0  0  0  0  0  0  0  0
   20.0221  138.2340    6.1450 H   0  0  0  0  0  0  0  0  0  0  0  0
   22.4389  131.3390    3.7411 H   0  0  0  0  0  0  0  0  0  0  0  0
   21.1114  131.6569    4.6374 H   0  0  0  0  0  0  0  0  0  0  0  0
   21.5956  133.9107    4.5552 H   0  0  0  0  0  0  0  0  0  0  0  0
   22.9231  133.5928    3.6589 H   0  0  0  0  0  0  0  0  0  0  0  0
   23.9028  132.4566    5.5304 H   0  0  0  0  0  0  0  0  0  0  0  0
   21.9437  133.4211    7.2783 H   0  0  0  0  0  0  0  0  0  0  0  0
   21.5629  132.1028    6.3930 H   0  0  0  0  0  0  0  0  0  0  0  0
   22.8518  132.0689    7.3950 H   0  0  0  0  0  0  0  0  0  0  0  0
   24.6800  134.2882    6.5638 H   0  0  0  0  0  0  0  0  0  0  0  0
   23.1937  134.9457    6.7221 H   0  0  0  0  0  0  0  0  0  0  0  0
   24.3136  134.9603    3.8914 H   0  0  0  0  0  0  0  0  0  0  0  0
  1  2  1  0  0  0  0
  2  3  1  0  0  0  0
  3  4  1  0  0  0  0
  3  5  1  0  0  0  0
  5  6  1  0  0  0  0
  6  7  1  0  0  0  0
  7  8  1  0  0  0  0
  8  9  1  0  0  0  0
  9 10  1  0  0  0  0
 10 11  2  0  0  0  0
 11 12  1  0  0  0  0
 12 13  2  0  0  0  0
 13 14  1  0  0  0  0
 14 15  2  0  0  0  0
  8 16  1  0  0  0  0
 16 17  2  0  0  0  0
 16 18  1  0  0  0  0
 18 19  1  0  0  0  0
 19 20  1  0  0  0  0
 20 21  1  0  0  0  0
 21 22  1  0  0  0  0
 22 23  1  0  0  0  0
 22 24  2  0  0  0  0
 22 25  2  0  0  0  0
 19 26  1  0  0  0  0
 26 27  2  0  0  0  0
 26 28  1  0  0  0  0
  5 29  1  0  0  0  0
 29 30  1  0  0  0  0
 30 31  1  0  0  0  0
 31 32  1  0  0  0  0
 31 33  1  0  0  0  0
 33 34  1  0  0  0  0
 15 10  1  0  0  0  0
  1 35  1  0  0  0  0
  1 36  1  0  0  0  0
  1 37  1  0  0  0  0
  2 38  1  0  0  0  0
  2 39  1  0  0  0  0
  3 40  1  0  0  0  0
  4 41  1  0  0  0  0
  4 42  1  0  0  0  0
  4 43  1  0  0  0  0
  5 44  1  0  0  0  0
  6 45  1  0  0  0  0
  6 46  1  0  0  0  0
  8 47  1  0  0  0  0
  9 48  1  0  0  0  0
  9 49  1  0  0  0  0
 11 50  1  0  0  0  0
 12 51  1  0  0  0  0
 13 52  1  0  0  0  0
 14 53  1  0  0  0  0
 15 54  1  0  0  0  0
 18 55  1  0  0  0  0
 19 56  1  0  0  0  0
 20 57  1  0  0  0  0
 20 58  1  0  0  0  0
 21 59  1  0  0  0  0
 21 60  1  0  0  0  0
 23 61  1  0  0  0  0
 23 62  1  0  0  0  0
 23 63  1  0  0  0  0
 29 64  1  0  0  0  0
 29 65  1  0  0  0  0
 30 66  1  0  0  0  0
 30 67  1  0  0  0  0
 31 68  1  0  0  0  0
 32 69  1  0  0  0  0
 32 70  1  0  0  0  0
 32 71  1  0  0  0  0
 33 72  1  0  0  0  0
 33 73  1  0  0  0  0
 34 74  1  0  0  0  0
M  CHG  3  28  -1  29   1  32   1
M  END
>  <docking-score>
-23.99

$$$$
1JCQ_739_2
foFlexX   03192112113D 1   1.00000     0.00000     0
FlexX 4.5.0 fol007
 74 74  0  0  0  0            999 V2000
   18.2593  133.8336    2.3093 C   0  0  0  0  0  0  0  0  0  0  0  0
   18.3722  132.7184    3.3468 C   0  0  0  0  0  0  0  0  0  0  0  0
   19.3711  131.5871    2.9737 C   0  0  1  0  0  0  0  0  0  0  0  0
   18.8532  130.8668    1.7135 C   0  0  0  0  0  0  0  0  0  0  0  0
   20.8724  132.0278    2.7605 C   0  0  1  0  0  0  0  0  0  0  0  0
   20.9736  133.4235    2.0924 C   0  0  0  0  0  0  0  0  0  0  0  0
   20.8000  133.3333    0.6880 O   0  0  0  0  0  0  0  0  0  0  0  0
   21.9362  133.8078   -0.0224 C   0  0  1  0  0  0  0  0  0  0  0  0
   21.6945  133.7167   -1.5411 C   0  0  0  0  0  0  0  0  0  0  0  0
   20.2369  133.8719   -1.8853 C   0  0  0  0  0  0  0  0  0  0  0  0
   19.4691  134.8097   -1.2033 C   0  0  0  0  0  0  0  0  0  0  0  0
   18.1233  134.9476   -1.5259 C   0  0  0  0  0  0  0  0  0  0  0  0
   17.5523  134.1584   -2.5179 C   0  0  0  0  0  0  0  0  0  0  0  0
   18.3281  133.2226   -3.1948 C   0  0  0  0  0  0  0  0  0  0  0  0
   19.6749  133.0772   -2.8793 C   0  0  0  0  0  0  0  0  0  0  0  0
   22.1609  135.2477    0.3442 C   0  0  0  0  0  0  0  0  0  0  0  0
   21.6054  136.1563   -0.3327 O   0  0  0  0  0  0  0  0  0  0  0  0
   23.0407  135.5879    1.4264 N   0  0  0  0  0  0  0  0  0  0  0  0
   23.3330  136.9756    1.7934 C   0  0  1  0  0  0  0  0  0  0  0  0
   22.0273  137.7068    2.1570 C   0  0  0  0  0  0  0  0  0  0  0  0
   22.2733  139.1682    2.5506 C   0  0  0  0  0  0  0  0  0  0  0  0
   23.0325  140.0678    1.2084 S   0  0  0  0  0  0  0  0  0  0  0  0
   22.5077  139.3659   -0.3390 C   0  0  0  0  0  0  0  0  0  0  0  0
   22.6176  141.5113    1.2640 O   0  0  0  0  0  0  0  0  0  0  0  0
   24.5287  139.9732    1.3140 O   0  0  0  0  0  0  0  0  0  0  0  0
   24.3083  136.9958    2.9359 C   0  0  0  0  0  0  0  0  0  0  0  0
   25.3563  137.6915    2.8682 O   0  0  0  0  0  0  0  0  0  0  0  0
   24.0659  136.2295    4.0688 O   0  5  0  0  0  0  0  0  0  0  0  0
   21.7202  131.9912    3.9853 N   0  3  0  0  0  0  0  0  0  0  0  0
   22.3396  133.2609    4.4256 C   0  0  0  0  0  0  0  0  0  0  0  0
   23.2163  133.1704    5.7107 C   0  0  2  0  0  0  0  0  0  0  0  0
   22.3847  132.6996    6.8279 N   0  3  0  0  0  0  0  0  0  0  0  0
   23.8503  134.5330    6.0830 C   0  0  0  0  0  0  0  0  0  0  0  0
   24.1255  135.5600    4.6556 S   0  0  0  0  0  0  0  0  0  0  0  0
   17.9508  133.4494    1.4392 H   0  0  0  0  0  0  0  0  0  0  0  0
   17.6004  134.5166    2.6245 H   0  0  0  0  0  0  0  0  0  0  0  0
   19.1529  134.2650    2.1851 H   0  0  0  0  0  0  0  0  0  0  0  0
   17.4673  132.3093    3.4648 H   0  0  0  0  0  0  0  0  0  0  0  0
   18.6695  133.1249    4.2107 H   0  0  0  0  0  0  0  0  0  0  0  0
   19.3600  130.9228    3.7211 H   0  0  0  0  0  0  0  0  0  0  0  0
   19.4133  130.0571    1.5384 H   0  0  0  0  0  0  0  0  0  0  0  0
   17.9025  130.5903    1.8545 H   0  0  0  0  0  0  0  0  0  0  0  0
   18.9076  131.4855    0.9298 H   0  0  0  0  0  0  0  0  0  0  0  0
   21.2725  131.3746    2.1176 H   0  0  0  0  0  0  0  0  0  0  0  0
   21.8741  133.8131    2.2854 H   0  0  0  0  0  0  0  0  0  0  0  0
   20.2647  134.0186    2.4712 H   0  0  0  0  0  0  0  0  0  0  0  0
   22.7398  133.2666    0.2250 H   0  0  0  0  0  0  0  0  0  0  0  0
   22.0108  132.8256   -1.8663 H   0  0  0  0  0  0  0  0  0  0  0  0
   22.2133  134.4408   -1.9955 H   0  0  0  0  0  0  0  0  0  0  0  0
   19.8795  135.3776   -0.4898 H   0  0  0  0  0  0  0  0  0  0  0  0
   17.5626  135.6189   -1.0411 H   0  0  0  0  0  0  0  0  0  0  0  0
   16.5841  134.2633   -2.7449 H   0  0  0  0  0  0  0  0  0  0  0  0
   17.9174  132.6546   -3.9080 H   0  0  0  0  0  0  0  0  0  0  0  0
   20.2356  132.4058   -3.3638 H   0  0  0  0  0  0  0  0  0  0  0  0
   23.4695  134.8508    1.9487 H   0  0  0  0  0  0  0  0  0  0  0  0
   23.7493  137.4341    1.0082 H   0  0  0  0  0  0  0  0  0  0  0  0
   21.5967  137.2341    2.9259 H   0  0  0  0  0  0  0  0  0  0  0  0
   21.4148  137.6847    1.3668 H   0  0  0  0  0  0  0  0  0  0  0  0
   22.8777  139.1959    3.3469 H   0  0  0  0  0  0  0  0  0  0  0  0
   21.3998  139.5974    2.7801 H   0  0  0  0  0  0  0  0  0  0  0  0
   22.9330  139.8661   -1.0933 H   0  0  0  0  0  0  0  0  0  0  0  0
   22.7823  138.4051   -0.3794 H   0  0  0  0  0  0  0  0  0  0  0  0
   21.5127  139.4316   -0.4145 H   0  0  0  0  0  0  0  0  0  0  0  0
   22.4599  131.3392    3.8182 H   0  0  0  0  0  0  0  0  0  0  0  0
   21.1480  131.6609    4.7360 H   0  0  0  0  0  0  0  0  0  0  0  0
   21.6056  133.9176    4.5992 H   0  0  0  0  0  0  0  0  0  0  0  0
   22.9175  133.5959    3.6815 H   0  0  0  0  0  0  0  0  0  0  0  0
   23.9486  132.5076    5.5539 H   0  0  0  0  0  0  0  0  0  0  0  0
   22.0160  133.4860    7.3235 H   0  0  0  0  0  0  0  0  0  0  0  0
   21.6313  132.1464    6.4725 H   0  0  0  0  0  0  0  0  0  0  0  0
   22.9412  132.1461    7.4475 H   0  0  0  0  0  0  0  0  0  0  0  0
   24.7272  134.3676    6.5344 H   0  0  0  0  0  0  0  0  0  0  0  0
   23.2373  135.0124    6.7111 H   0  0  0  0  0  0  0  0  0  0  0  0
   24.2975  134.9824    3.8576 H   0  0  0  0  0  0  0  0  0  0  0  0
  1  2  1  0  0  0  0
  2  3  1  0  0  0  0
  3  4  1  0  0  0  0
  3  5  1  0  0  0  0
  5  6  1  0  0  0  0
  6  7  1  0  0  0  0
  7  8  1  0  0  0  0
  8  9  1  0  0  0  0
  9 10  1  0  0  0  0
 10 11  2  0  0  0  0
 11 12  1  0  0  0  0
 12 13  2  0  0  0  0
 13 14  1  0  0  0  0
 14 15  2  0  0  0  0
  8 16  1  0  0  0  0
 16 17  2  0  0  0  0
 16 18  1  0  0  0  0
 18 19  1  0  0  0  0
 19 20  1  0  0  0  0
 20 21  1  0  0  0  0
 21 22  1  0  0  0  0
 22 23  1  0  0  0  0
 22 24  2  0  0  0  0
 22 25  2  0  0  0  0
 19 26  1  0  0  0  0
 26 27  2  0  0  0  0
 26 28  1  0  0  0  0
  5 29  1  0  0  0  0
 29 30  1  0  0  0  0
 30 31  1  0  0  0  0
 31 32  1  0  0  0  0
 31 33  1  0  0  0  0
 33 34  1  0  0  0  0
 15 10  1  0  0  0  0
  1 35  1  0  0  0  0
  1 36  1  0  0  0  0
  1 37  1  0  0  0  0
  2 38  1  0  0  0  0
  2 39  1  0  0  0  0
  3 40  1  0  0  0  0
  4 41  1  0  0  0  0
  4 42  1  0  0  0  0
  4 43  1  0  0  0  0
  5 44  1  0  0  0  0
  6 45  1  0  0  0  0
  6 46  1  0  0  0  0
  8 47  1  0  0  0  0
  9 48  1  0  0  0  0
  9 49  1  0  0  0  0
 11 50  1  0  0  0  0
 12 51  1  0  0  0  0
 13 52  1  0  0  0  0
 14 53  1  0  0  0  0
 15 54  1  0  0  0  0
 18 55  1  0  0  0  0
 19 56  1  0  0  0  0
 20 57  1  0  0  0  0
 20 58  1  0  0  0  0
 21 59  1  0  0  0  0
 21 60  1  0  0  0  0
 23 61  1  0  0  0  0
 23 62  1  0  0  0  0
 23 63  1  0  0  0  0
 29 64  1  0  0  0  0
 29 65  1  0  0  0  0
 30 66  1  0  0  0  0
 30 67  1  0  0  0  0
 31 68  1  0  0  0  0
 32 69  1  0  0  0  0
 32 70  1  0  0  0  0
 32 71  1  0  0  0  0
 33 72  1  0  0  0  0
 33 73  1  0  0  0  0
 34 74  1  0  0  0  0
M  CHG  3  28  -1  29   1  32   1
M  END
>  <docking-score>
-22.62

$$$$
1JCQ_739_3
foFlexX   03192112113D 1   1.00000     0.00000     0
FlexX 4.5.0 fol007
 74 74  0  0  0  0            999 V2000
   18.2977  133.9085    2.1945 C   0  0  0  0  0  0  0  0  0  0  0  0
   18.3768  132.7719    3.2117 C   0  0  0  0  0  0  0  0  0  0  0  0
   19.3715  131.6373    2.8372 C   0  0  1  0  0  0  0  0  0  0  0  0
   18.8727  130.9476    1.5523 C   0  0  0  0  0  0  0  0  0  0  0  0
   20.8815  132.0656    2.6643 C   0  0  1  0  0  0  0  0  0  0  0  0
   21.0114  133.4730    2.0264 C   0  0  0  0  0  0  0  0  0  0  0  0
   20.8667  133.4124    0.6171 O   0  0  0  0  0  0  0  0  0  0  0  0
   22.0226  133.8883   -0.0598 C   0  0  1  0  0  0  0  0  0  0  0  0
   21.8121  133.8298   -1.5846 C   0  0  0  0  0  0  0  0  0  0  0  0
   20.6428  134.6724   -2.0202 C   0  0  0  0  0  0  0  0  0  0  0  0
   20.7367  135.4210   -3.1885 C   0  0  0  0  0  0  0  0  0  0  0  0
   19.6531  136.1976   -3.5850 C   0  0  0  0  0  0  0  0  0  0  0  0
   18.4904  136.2254   -2.8233 C   0  0  0  0  0  0  0  0  0  0  0  0
   18.4056  135.4735   -1.6557 C   0  0  0  0  0  0  0  0  0  0  0  0
   19.4839  134.6938   -1.2509 C   0  0  0  0  0  0  0  0  0  0  0  0
   22.2547  135.3182    0.3400 C   0  0  0  0  0  0  0  0  0  0  0  0
   21.7233  136.2459   -0.3301 O   0  0  0  0  0  0  0  0  0  0  0  0
   23.1149  135.6273    1.4470 N   0  0  0  0  0  0  0  0  0  0  0  0
   23.4140  137.0043    1.8476 C   0  0  1  0  0  0  0  0  0  0  0  0
   22.1087  137.7424    2.1983 C   0  0  0  0  0  0  0  0  0  0  0  0
   21.7440  137.5993    3.6808 C   0  0  0  0  0  0  0  0  0  0  0  0
   19.9739  137.6534    3.9070 S   0  0  0  0  0  0  0  0  0  0  0  0
   19.5982  137.4842    5.6369 C   0  0  0  0  0  0  0  0  0  0  0  0
   19.4370  138.9659    3.4091 O   0  0  0  0  0  0  0  0  0  0  0  0
   19.3290  136.5286    3.1469 O   0  0  0  0  0  0  0  0  0  0  0  0
   24.3651  136.9912    3.0104 C   0  0  0  0  0  0  0  0  0  0  0  0
   25.4216  137.6766    2.9786 O   0  0  0  0  0  0  0  0  0  0  0  0
   24.0907  136.2054    4.1226 O   0  5  0  0  0  0  0  0  0  0  0  0
   21.7028  131.9956    3.9056 N   0  3  0  0  0  0  0  0  0  0  0  0
   22.3260  133.2495    4.3840 C   0  0  0  0  0  0  0  0  0  0  0  0
   23.1744  133.1241    5.6850 C   0  0  2  0  0  0  0  0  0  0  0  0
   22.3144  132.6406    6.7750 N   0  3  0  0  0  0  0  0  0  0  0  0
   23.8147  134.4722    6.0976 C   0  0  0  0  0  0  0  0  0  0  0  0
   24.1308  135.5239    4.6970 S   0  0  0  0  0  0  0  0  0  0  0  0
   18.0036  133.5449    1.3106 H   0  0  0  0  0  0  0  0  0  0  0  0
   17.6395  134.5924    2.5094 H   0  0  0  0  0  0  0  0  0  0  0  0
   19.1982  134.3324    2.0976 H   0  0  0  0  0  0  0  0  0  0  0  0
   17.4654  132.3705    3.3026 H   0  0  0  0  0  0  0  0  0  0  0  0
   18.6601  133.1580    4.0896 H   0  0  0  0  0  0  0  0  0  0  0  0
   19.3375  130.9586    3.5708 H   0  0  0  0  0  0  0  0  0  0  0  0
   19.4278  130.1355    1.3729 H   0  0  0  0  0  0  0  0  0  0  0  0
   17.9164  130.6789    1.6679 H   0  0  0  0  0  0  0  0  0  0  0  0
   18.9502  131.5811    0.7824 H   0  0  0  0  0  0  0  0  0  0  0  0
   21.2881  131.4209    2.0170 H   0  0  0  0  0  0  0  0  0  0  0  0
   21.9117  133.8489    2.2459 H   0  0  0  0  0  0  0  0  0  0  0  0
   20.3011  134.0683    2.4020 H   0  0  0  0  0  0  0  0  0  0  0  0
   22.8151  133.3336    0.1936 H   0  0  0  0  0  0  0  0  0  0  0  0
   21.6447  132.8809   -1.8521 H   0  0  0  0  0  0  0  0  0  0  0  0
   22.6384  134.1633   -2.0385 H   0  0  0  0  0  0  0  0  0  0  0  0
   21.5728  135.4010   -3.7367 H   0  0  0  0  0  0  0  0  0  0  0  0
   19.7108  136.7396   -4.4234 H   0  0  0  0  0  0  0  0  0  0  0  0
   17.7150  136.7857   -3.1146 H   0  0  0  0  0  0  0  0  0  0  0  0
   17.5694  135.4938   -1.1075 H   0  0  0  0  0  0  0  0  0  0  0  0
   19.4265  134.1520   -0.4124 H   0  0  0  0  0  0  0  0  0  0  0  0
   23.5248  134.8754    1.9634 H   0  0  0  0  0  0  0  0  0  0  0  0
   23.8516  137.4735    1.0806 H   0  0  0  0  0  0  0  0  0  0  0  0
   21.3660  137.3639    1.6458 H   0  0  0  0  0  0  0  0  0  0  0  0
   22.2205  138.7132    1.9862 H   0  0  0  0  0  0  0  0  0  0  0  0
   22.1631  138.3475    4.1951 H   0  0  0  0  0  0  0  0  0  0  0  0
   22.0913  136.7254    4.0209 H   0  0  0  0  0  0  0  0  0  0  0  0
   18.6071  137.5118    5.7670 H   0  0  0  0  0  0  0  0  0  0  0  0
   19.9542  136.6117    5.9716 H   0  0  0  0  0  0  0  0  0  0  0  0
   20.0221  138.2340    6.1450 H   0  0  0  0  0  0  0  0  0  0  0  0
   22.4389  131.3390    3.7411 H   0  0  0  0  0  0  0  0  0  0  0  0
   21.1114  131.6569    4.6374 H   0  0  0  0  0  0  0  0  0  0  0  0
   21.5956  133.9107    4.5552 H   0  0  0  0  0  0  0  0  0  0  0  0
   22.9231  133.5928    3.6589 H   0  0  0  0  0  0  0  0  0  0  0  0
   23.9028  132.4566    5.5304 H   0  0  0  0  0  0  0  0  0  0  0  0
   21.9437  133.4211    7.2783 H   0  0  0  0  0  0  0  0  0  0  0  0
   21.5629  132.1028    6.3930 H   0  0  0  0  0  0  0  0  0  0  0  0
   22.8518  132.0689    7.3950 H   0  0  0  0  0  0  0  0  0  0  0  0
   24.6800  134.2882    6.5638 H   0  0  0  0  0  0  0  0  0  0  0  0
   23.1937  134.9457    6.7221 H   0  0  0  0  0  0  0  0  0  0  0  0
   24.3136  134.9603    3.8914 H   0  0  0  0  0  0  0  0  0  0  0  0
  1  2  1  0  0  0  0
  2  3  1  0  0  0  0
  3  4  1  0  0  0  0
  3  5  1  0  0  0  0
  5  6  1  0  0  0  0
  6  7  1  0  0  0  0
  7  8  1  0  0  0  0
  8  9  1  0  0  0  0
  9 10  1  0  0  0  0
 10 11  2  0  0  0  0
 11 12  1  0  0  0  0
 12 13  2  0  0  0  0
 13 14  1  0  0  0  0
 14 15  2  0  0  0  0
  8 16  1  0  0  0  0
 16 17  2  0  0  0  0
 16 18  1  0  0  0  0
 18 19  1  0  0  0  0
 19 20  1  0  0  0  0
 20 21  1  0  0  0  0
 21 22  1  0  0  0  0
 22 23  1  0  0  0  0
 22 24  2  0  0  0  0
 22 25  2  0  0  0  0
 19 26  1  0  0  0  0
 26 27  2  0  0  0  0
 26 28  1  0  0  0  0
  5 29  1  0  0  0  0
 29 30  1  0  0  0  0
 30 31  1  0  0  0  0
 31 32  1  0  0  0  0
 31 33  1  0  0  0  0
 33 34  1  0  0  0  0
 15 10  1  0  0  0  0
  1 35  1  0  0  0  0
  1 36  1  0  0  0  0
  1 37  1  0  0  0  0
  2 38  1  0  0  0  0
  2 39  1  0  0  0  0
  3 40  1  0  0  0  0
  4 41  1  0  0  0  0
  4 42  1  0  0  0  0
  4 43  1  0  0  0  0
  5 44  1  0  0  0  0
  6 45  1  0  0  0  0
  6 46  1  0  0  0  0
  8 47  1  0  0  0  0
  9 48  1  0  0  0  0
  9 49  1  0  0  0  0
 11 50  1  0  0  0  0
 12 51  1  0  0  0  0
 13 52  1  0  0  0  0
 14 53  1  0  0  0  0
 15 54  1  0  0  0  0
 18 55  1  0  0  0  0
 19 56  1  0  0  0  0
 20 57  1  0  0  0  0
 20 58  1  0  0  0  0
 21 59  1  0  0  0  0
 21 60  1  0  0  0  0
 23 61  1  0  0  0  0
 23 62  1  0  0  0  0
 23 63  1  0  0  0  0
 29 64  1  0  0  0  0
 29 65  1  0  0  0  0
 30 66  1  0  0  0  0
 30 67  1  0  0  0  0
 31 68  1  0  0  0  0
 32 69  1  0  0  0  0
 32 70  1  0  0  0  0
 32 71  1  0  0  0  0
 33 72  1  0  0  0  0
 33 73  1  0  0  0  0
 34 74  1  0  0  0  0
M  CHG  3  28  -1  29   1  32   1
M  END
>  <docking-score>
-22.59

$$$$
1SA4_JAN_1
foFlexX   03192112113D 1   1.00000     0.00000     0
FlexX 4.5.0 fol007
 57 61  0  0  0  0            999 V2000
   22.5373  135.4744    2.5777 C   0  0  0  0  0  0  0  0  0  0  0  0
   22.6867  134.6008    3.7510 N   0  0  0  0  0  0  0  0  0  0  0  0
   23.8286  133.9446    4.1072 C   0  0  0  0  0  0  0  0  0  0  0  0
   23.5766  133.2686    5.2065 N   0  0  0  0  0  0  0  0  0  0  0  0
   22.2762  133.4813    5.5677 C   0  0  0  0  0  0  0  0  0  0  0  0
   21.7076  134.3203    4.6543 C   0  0  0  0  0  0  0  0  0  0  0  0
   20.2600  134.8430    4.6547 C   0  0  1  0  0  0  0  0  0  0  0  0
   19.5472  134.2567    5.8193 N   0  3  0  0  0  0  0  0  0  0  0  0
   20.2306  136.3842    4.7716 C   0  0  0  0  0  0  0  0  0  0  0  0
   21.4309  137.0848    4.8412 C   0  0  0  0  0  0  0  0  0  0  0  0
   21.4217  138.4718    4.9456 C   0  0  0  0  0  0  0  0  0  0  0  0
   20.2031  139.1408    4.9798 C   0  0  0  0  0  0  0  0  0  0  0  0
   20.1741  140.9156    5.1133 Cl  0  0  0  0  0  0  0  0  0  0  0  0
   19.0027  138.4423    4.9100 C   0  0  0  0  0  0  0  0  0  0  0  0
   19.0131  137.0554    4.8056 C   0  0  0  0  0  0  0  0  0  0  0  0
   19.5593  134.4007    3.3469 C   0  0  0  0  0  0  0  0  0  0  0  0
   19.9672  133.2371    2.7093 C   0  0  0  0  0  0  0  0  0  0  0  0
   19.3076  132.8825    1.5401 C   0  0  0  0  0  0  0  0  0  0  0  0
   18.2769  133.6629    1.0258 C   0  0  0  0  0  0  0  0  0  0  0  0
   17.8958  134.8202    1.6903 C   0  0  0  0  0  0  0  0  0  0  0  0
   18.5368  135.2026    2.8631 C   0  0  0  0  0  0  0  0  0  0  0  0
   16.8238  135.6381    1.1485 C   0  0  0  0  0  0  0  0  0  0  0  0
   16.3969  136.8601    1.8049 C   0  0  0  0  0  0  0  0  0  0  0  0
   15.0805  136.9781    2.2382 C   0  0  0  0  0  0  0  0  0  0  0  0
   14.6795  138.1529    2.8665 C   0  0  0  0  0  0  0  0  0  0  0  0
   15.5741  139.1995    3.0630 C   0  0  0  0  0  0  0  0  0  0  0  0
   16.8858  139.0594    2.6214 C   0  0  0  0  0  0  0  0  0  0  0  0
   18.0458  140.3877    2.8623 Cl  0  0  0  0  0  0  0  0  0  0  0  0
   17.3085  137.8941    1.9903 C   0  0  0  0  0  0  0  0  0  0  0  0
   16.1867  135.3183    0.0367 C   0  0  0  0  0  0  0  0  0  0  0  0
   16.5684  134.1103   -0.6692 C   0  0  0  0  0  0  0  0  0  0  0  0
   15.9791  133.8141   -1.6962 O   0  0  0  0  0  0  0  0  0  0  0  0
   17.6027  133.3182   -0.1527 N   0  0  0  0  0  0  0  0  0  0  0  0
   17.9536  132.1048   -0.9098 C   0  0  0  0  0  0  0  0  0  0  0  0
   21.6039  135.8318    2.5449 H   0  0  0  0  0  0  0  0  0  0  0  0
   23.1833  136.2348    2.6439 H   0  0  0  0  0  0  0  0  0  0  0  0
   22.7230  134.9506    1.7463 H   0  0  0  0  0  0  0  0  0  0  0  0
   24.7011  133.9727    3.6194 H   0  0  0  0  0  0  0  0  0  0  0  0
   21.8189  133.0888    6.3658 H   0  0  0  0  0  0  0  0  0  0  0  0
   19.5637  133.2591    5.7525 H   0  0  0  0  0  0  0  0  0  0  0  0
   19.9990  134.5417    6.6647 H   0  0  0  0  0  0  0  0  0  0  0  0
   18.5991  134.5748    5.8244 H   0  0  0  0  0  0  0  0  0  0  0  0
   22.3001  136.5911    4.8162 H   0  0  0  0  0  0  0  0  0  0  0  0
   22.2806  138.9815    4.9955 H   0  0  0  0  0  0  0  0  0  0  0  0
   18.1336  138.9363    4.9349 H   0  0  0  0  0  0  0  0  0  0  0  0
   18.1539  136.5461    4.7554 H   0  0  0  0  0  0  0  0  0  0  0  0
   20.7080  132.6756    3.0781 H   0  0  0  0  0  0  0  0  0  0  0  0
   19.5788  132.0495    1.0580 H   0  0  0  0  0  0  0  0  0  0  0  0
   18.2670  136.0357    3.3461 H   0  0  0  0  0  0  0  0  0  0  0  0
   14.4319  136.2295    2.1003 H   0  0  0  0  0  0  0  0  0  0  0  0
   13.7349  138.2461    3.1811 H   0  0  0  0  0  0  0  0  0  0  0  0
   15.2786  140.0410    3.5153 H   0  0  0  0  0  0  0  0  0  0  0  0
   18.2529  137.8012    1.6748 H   0  0  0  0  0  0  0  0  0  0  0  0
   15.4524  135.9001   -0.3129 H   0  0  0  0  0  0  0  0  0  0  0  0
   18.7014  131.6282   -0.4478 H   0  0  0  0  0  0  0  0  0  0  0  0
   17.1568  131.5028   -0.9626 H   0  0  0  0  0  0  0  0  0  0  0  0
   18.2407  132.3595   -1.8332 H   0  0  0  0  0  0  0  0  0  0  0  0
  1  2  1  0  0  0  0
  2  3  1  0  0  0  0
  3  4  2  0  0  0  0
  4  5  1  0  0  0  0
  5  6  2  0  0  0  0
  6  7  1  0  0  0  0
  7  8  1  0  0  0  0
  7  9  1  0  0  0  0
  9 10  2  0  0  0  0
 10 11  1  0  0  0  0
 11 12  2  0  0  0  0
 12 13  1  0  0  0  0
 12 14  1  0  0  0  0
 14 15  2  0  0  0  0
  7 16  1  0  0  0  0
 16 17  2  0  0  0  0
 17 18  1  0  0  0  0
 18 19  2  0  0  0  0
 19 20  1  0  0  0  0
 20 21  2  0  0  0  0
 20 22  1  0  0  0  0
 22 23  1  0  0  0  0
 23 24  2  0  0  0  0
 24 25  1  0  0  0  0
 25 26  2  0  0  0  0
 26 27  1  0  0  0  0
 27 28  1  0  0  0  0
 27 29  2  0  0  0  0
 22 30  2  0  0  0  0
 30 31  1  0  0  0  0
 31 32  2  0  0  0  0
 31 33  1  0  0  0  0
 33 34  1  0  0  0  0
  6  2  1  0  0  0  0
 15  9  1  0  0  0  0
 21 16  1  0  0  0  0
 29 23  1  0  0  0  0
 33 19  1  0  0  0  0
  1 35  1  0  0  0  0
  1 36  1  0  0  0  0
  1 37  1  0  0  0  0
  3 38  1  0  0  0  0
  5 39  1  0  0  0  0
  8 40  1  0  0  0  0
  8 41  1  0  0  0  0
  8 42  1  0  0  0  0
 10 43  1  0  0  0  0
 11 44  1  0  0  0  0
 14 45  1  0  0  0  0
 15 46  1  0  0  0  0
 17 47  1  0  0  0  0
 18 48  1  0  0  0  0
 21 49  1  0  0  0  0
 24 50  1  0  0  0  0
 25 51  1  0  0  0  0
 26 52  1  0  0  0  0
 29 53  1  0  0  0  0
 30 54  1  0  0  0  0
 34 55  1  0  0  0  0
 34 56  1  0  0  0  0
 34 57  1  0  0  0  0
M  CHG  1   8   1
M  END
>  <docking-score>
-20.20

$$$$
1SA4_JAN_2
foFlexX   03192112113D 1   1.00000     0.00000     0
FlexX 4.5.0 fol007
 57 61  0  0  0  0            999 V2000
   19.2017  130.8611    2.6258 C   0  0  0  0  0  0  0  0  0  0  0  0
   19.8798  131.9111    1.8513 N   0  0  0  0  0  0  0  0  0  0  0  0
   20.6799  131.7005    0.7664 C   0  0  0  0  0  0  0  0  0  0  0  0
   21.1001  132.8727    0.3442 N   0  0  0  0  0  0  0  0  0  0  0  0
   20.5778  133.8455    1.1490 C   0  0  0  0  0  0  0  0  0  0  0  0
   19.8071  133.2470    2.1026 C   0  0  0  0  0  0  0  0  0  0  0  0
   19.0163  133.9444    3.2237 C   0  0  1  0  0  0  0  0  0  0  0  0
   18.2997  132.9076    4.0109 N   0  3  0  0  0  0  0  0  0  0  0  0
   19.9640  134.7235    4.1642 C   0  0  0  0  0  0  0  0  0  0  0  0
   19.4317  135.4083    5.2524 C   0  0  0  0  0  0  0  0  0  0  0  0
   20.2710  136.1133    6.1088 C   0  0  0  0  0  0  0  0  0  0  0  0
   21.6392  136.1227    5.8609 C   0  0  0  0  0  0  0  0  0  0  0  0
   22.7269  137.0203    6.9473 Cl  0  0  0  0  0  0  0  0  0  0  0  0
   22.1729  135.4387    4.7742 C   0  0  0  0  0  0  0  0  0  0  0  0
   21.3328  134.7340    3.9185 C   0  0  0  0  0  0  0  0  0  0  0  0
   17.9870  134.9138    2.5928 C   0  0  0  0  0  0  0  0  0  0  0  0
   17.5848  136.0408    3.2962 C   0  0  0  0  0  0  0  0  0  0  0  0
   16.6605  136.8795    2.6877 C   0  0  0  0  0  0  0  0  0  0  0  0
   16.1558  136.6021    1.4212 C   0  0  0  0  0  0  0  0  0  0  0  0
   16.5809  135.4657    0.7474 C   0  0  0  0  0  0  0  0  0  0  0  0
   17.5050  134.6058    1.3296 C   0  0  0  0  0  0  0  0  0  0  0  0
   16.0478  135.1733   -0.5725 C   0  0  0  0  0  0  0  0  0  0  0  0
   16.4574  133.9930   -1.3111 C   0  0  0  0  0  0  0  0  0  0  0  0
   15.5021  133.0498   -1.6747 C   0  0  0  0  0  0  0  0  0  0  0  0
   15.9033  131.9211   -2.3824 C   0  0  0  0  0  0  0  0  0  0  0  0
   17.2374  131.7298   -2.7259 C   0  0  0  0  0  0  0  0  0  0  0  0
   18.1755  132.6863   -2.3518 C   0  0  0  0  0  0  0  0  0  0  0  0
   19.8880  132.4594   -2.7808 Cl  0  0  0  0  0  0  0  0  0  0  0  0
   17.7971  133.8220   -1.6433 C   0  0  0  0  0  0  0  0  0  0  0  0
   15.1665  135.9578   -1.1660 C   0  0  0  0  0  0  0  0  0  0  0  0
   14.7138  137.1520   -0.4789 C   0  0  0  0  0  0  0  0  0  0  0  0
   13.8999  137.8775   -1.0276 O   0  0  0  0  0  0  0  0  0  0  0  0
   15.2227  137.4385    0.7950 N   0  0  0  0  0  0  0  0  0  0  0  0
   14.7274  138.6607    1.4504 C   0  0  0  0  0  0  0  0  0  0  0  0
   18.6776  131.2799    3.3674 H   0  0  0  0  0  0  0  0  0  0  0  0
   18.5835  130.3518    2.0271 H   0  0  0  0  0  0  0  0  0  0  0  0
   19.8828  130.2377    3.0097 H   0  0  0  0  0  0  0  0  0  0  0  0
   20.9062  130.8133    0.3642 H   0  0  0  0  0  0  0  0  0  0  0  0
   20.7338  134.8287    1.0551 H   0  0  0  0  0  0  0  0  0  0  0  0
   18.0917  132.1266    3.4220 H   0  0  0  0  0  0  0  0  0  0  0  0
   18.8768  132.6079    4.7706 H   0  0  0  0  0  0  0  0  0  0  0  0
   17.4485  133.2905    4.3697 H   0  0  0  0  0  0  0  0  0  0  0  0
   18.4458  135.3937    5.4187 H   0  0  0  0  0  0  0  0  0  0  0  0
   19.8951  136.6071    6.8929 H   0  0  0  0  0  0  0  0  0  0  0  0
   23.1589  135.4534    4.6082 H   0  0  0  0  0  0  0  0  0  0  0  0
   21.7091  134.2401    3.1346 H   0  0  0  0  0  0  0  0  0  0  0  0
   17.9469  136.2410    4.2066 H   0  0  0  0  0  0  0  0  0  0  0  0
   16.3514  137.6995    3.1695 H   0  0  0  0  0  0  0  0  0  0  0  0
   17.8147  133.7852    0.8493 H   0  0  0  0  0  0  0  0  0  0  0  0
   14.5412  133.1809   -1.4310 H   0  0  0  0  0  0  0  0  0  0  0  0
   15.2230  131.2379   -2.6478 H   0  0  0  0  0  0  0  0  0  0  0  0
   17.5183  130.9160   -3.2347 H   0  0  0  0  0  0  0  0  0  0  0  0
   18.4775  134.5048   -1.3771 H   0  0  0  0  0  0  0  0  0  0  0  0
   14.8167  135.7318   -2.0752 H   0  0  0  0  0  0  0  0  0  0  0  0
   15.1575  138.7551    2.3483 H   0  0  0  0  0  0  0  0  0  0  0  0
   14.9532  139.4557    0.8874 H   0  0  0  0  0  0  0  0  0  0  0  0
   13.7353  138.6011    1.5606 H   0  0  0  0  0  0  0  0  0  0  0  0
  1  2  1  0  0  0  0
  2  3  1  0  0  0  0
  3  4  2  0  0  0  0
  4  5  1  0  0  0  0
  5  6  2  0  0  0  0
  6  7  1  0  0  0  0
  7  8  1  0  0  0  0
  7  9  1  0  0  0  0
  9 10  2  0  0  0  0
 10 11  1  0  0  0  0
 11 12  2  0  0  0  0
 12 13  1  0  0  0  0
 12 14  1  0  0  0  0
 14 15  2  0  0  0  0
  7 16  1  0  0  0  0
 16 17  2  0  0  0  0
 17 18  1  0  0  0  0
 18 19  2  0  0  0  0
 19 20  1  0  0  0  0
 20 21  2  0  0  0  0
 20 22  1  0  0  0  0
 22 23  1  0  0  0  0
 23 24  2  0  0  0  0
 24 25  1  0  0  0  0
 25 26  2  0  0  0  0
 26 27  1  0  0  0  0
 27 28  1  0  0  0  0
 27 29  2  0  0  0  0
 22 30  2  0  0  0  0
 30 31  1  0  0  0  0
 31 32  2  0  0  0  0
 31 33  1  0  0  0  0
 33 34  1  0  0  0  0
  6  2  1  0  0  0  0
 15  9  1  0  0  0  0
 21 16  1  0  0  0  0
 29 23  1  0  0  0  0
 33 19  1  0  0  0  0
  1 35  1  0  0  0  0
  1 36  1  0  0  0  0
  1 37  1  0  0  0  0
  3 38  1  0  0  0  0
  5 39  1  0  0  0  0
  8 40  1  0  0  0  0
  8 41  1  0  0  0  0
  8 42  1  0  0  0  0
 10 43  1  0  0  0  0
 11 44  1  0  0  0  0
 14 45  1  0  0  0  0
 15 46  1  0  0  0  0
 17 47  1  0  0  0  0
 18 48  1  0  0  0  0
 21 49  1  0  0  0  0
 24 50  1  0  0  0  0
 25 51  1  0  0  0  0
 26 52  1  0  0  0  0
 29 53  1  0  0  0  0
 30 54  1  0  0  0  0
 34 55  1  0  0  0  0
 34 56  1  0  0  0  0
 34 57  1  0  0  0  0
M  CHG  1   8   1
M  END
>  <docking-score>
-18.30

$$$$
1SA4_JAN_3
foFlexX   03192112113D 1   1.00000     0.00000     0
FlexX 4.5.0 fol007
 57 61  0  0  0  0            999 V2000
   18.6628  134.1807    1.1027 C   0  0  0  0  0  0  0  0  0  0  0  0
   17.5604  135.0366    0.6400 N   0  0  0  0  0  0  0  0  0  0  0  0
   17.0036  136.0604    1.3494 C   0  0  0  0  0  0  0  0  0  0  0  0
   16.0527  136.5894    0.6113 N   0  0  0  0  0  0  0  0  0  0  0  0
   15.9875  135.9150   -0.5752 C   0  0  0  0  0  0  0  0  0  0  0  0
   16.9351  134.9335   -0.5648 C   0  0  0  0  0  0  0  0  0  0  0  0
   17.2343  133.9257   -1.6889 C   0  0  1  0  0  0  0  0  0  0  0  0
   18.3629  133.0602   -1.2583 N   0  3  0  0  0  0  0  0  0  0  0  0
   16.0222  133.0529   -1.9711 C   0  0  0  0  0  0  0  0  0  0  0  0
   16.1205  131.6753   -1.8001 C   0  0  0  0  0  0  0  0  0  0  0  0
   15.0203  130.8627   -2.0532 C   0  0  0  0  0  0  0  0  0  0  0  0
   13.8309  131.4451   -2.4771 C   0  0  0  0  0  0  0  0  0  0  0  0
   12.4137  130.4191   -2.8055 Cl  0  0  0  0  0  0  0  0  0  0  0  0
   13.7308  132.8215   -2.6483 C   0  0  0  0  0  0  0  0  0  0  0  0
   14.8316  133.6331   -2.3949 C   0  0  0  0  0  0  0  0  0  0  0  0
   17.6373  134.6970   -2.9694 C   0  0  0  0  0  0  0  0  0  0  0  0
   16.6642  135.0433   -3.8968 C   0  0  0  0  0  0  0  0  0  0  0  0
   17.0753  135.7349   -5.0284 C   0  0  0  0  0  0  0  0  0  0  0  0
   18.4113  136.0688   -5.2267 C   0  0  0  0  0  0  0  0  0  0  0  0
   19.3570  135.7060   -4.2778 C   0  0  0  0  0  0  0  0  0  0  0  0
   18.9773  135.0127   -3.1342 C   0  0  0  0  0  0  0  0  0  0  0  0
   20.7531  136.0491   -4.4893 C   0  0  0  0  0  0  0  0  0  0  0  0
   21.7775  135.6838   -3.5282 C   0  0  0  0  0  0  0  0  0  0  0  0
   22.8253  134.8608   -3.9272 C   0  0  0  0  0  0  0  0  0  0  0  0
   23.8030  134.5153   -2.9996 C   0  0  0  0  0  0  0  0  0  0  0  0
   23.7424  134.9808   -1.6904 C   0  0  0  0  0  0  0  0  0  0  0  0
   22.6852  135.8028   -1.3137 C   0  0  0  0  0  0  0  0  0  0  0  0
   22.5888  136.4080    0.3574 Cl  0  0  0  0  0  0  0  0  0  0  0  0
   21.6962  136.1604   -2.2242 C   0  0  0  0  0  0  0  0  0  0  0  0
   21.1631  136.7043   -5.5602 C   0  0  0  0  0  0  0  0  0  0  0  0
   20.1887  137.0954   -6.5606 C   0  0  0  0  0  0  0  0  0  0  0  0
   20.5674  137.7016   -7.5500 O   0  0  0  0  0  0  0  0  0  0  0  0
   18.8409  136.7658   -6.3633 N   0  0  0  0  0  0  0  0  0  0  0  0
   17.8934  137.1826   -7.4107 C   0  0  0  0  0  0  0  0  0  0  0  0
   18.8834  133.5095    0.3950 H   0  0  0  0  0  0  0  0  0  0  0  0
   19.4671  134.7449    1.2893 H   0  0  0  0  0  0  0  0  0  0  0  0
   18.3877  133.7056    1.9385 H   0  0  0  0  0  0  0  0  0  0  0  0
   17.2709  136.3556    2.2667 H   0  0  0  0  0  0  0  0  0  0  0  0
   15.3531  136.1080   -1.3237 H   0  0  0  0  0  0  0  0  0  0  0  0
   19.1284  133.1706   -1.8922 H   0  0  0  0  0  0  0  0  0  0  0  0
   18.6519  133.3228   -0.3377 H   0  0  0  0  0  0  0  0  0  0  0  0
   18.0678  132.1047   -1.2552 H   0  0  0  0  0  0  0  0  0  0  0  0
   16.9821  131.2696   -1.4953 H   0  0  0  0  0  0  0  0  0  0  0  0
   15.0839  129.8722   -1.9318 H   0  0  0  0  0  0  0  0  0  0  0  0
   12.8690  133.2270   -2.9530 H   0  0  0  0  0  0  0  0  0  0  0  0
   14.7674  134.6237   -2.5161 H   0  0  0  0  0  0  0  0  0  0  0  0
   15.7037  134.8038   -3.7553 H   0  0  0  0  0  0  0  0  0  0  0  0
   16.3974  135.9984   -5.7147 H   0  0  0  0  0  0  0  0  0  0  0  0
   19.6542  134.7481   -2.4473 H   0  0  0  0  0  0  0  0  0  0  0  0
   22.8753  134.5224   -4.8669 H   0  0  0  0  0  0  0  0  0  0  0  0
   24.5599  133.9240   -3.2781 H   0  0  0  0  0  0  0  0  0  0  0  0
   24.4488  134.7282   -1.0292 H   0  0  0  0  0  0  0  0  0  0  0  0
   20.9389  136.7510   -1.9455 H   0  0  0  0  0  0  0  0  0  0  0  0
   22.1306  136.9273   -5.6795 H   0  0  0  0  0  0  0  0  0  0  0  0
   16.9704  136.8902   -7.1607 H   0  0  0  0  0  0  0  0  0  0  0  0
   17.9145  138.1781   -7.5022 H   0  0  0  0  0  0  0  0  0  0  0  0
   18.1521  136.7624   -8.2805 H   0  0  0  0  0  0  0  0  0  0  0  0
  1  2  1  0  0  0  0
  2  3  1  0  0  0  0
  3  4  2  0  0  0  0
  4  5  1  0  0  0  0
  5  6  2  0  0  0  0
  6  7  1  0  0  0  0
  7  8  1  0  0  0  0
  7  9  1  0  0  0  0
  9 10  2  0  0  0  0
 10 11  1  0  0  0  0
 11 12  2  0  0  0  0
 12 13  1  0  0  0  0
 12 14  1  0  0  0  0
 14 15  2  0  0  0  0
  7 16  1  0  0  0  0
 16 17  2  0  0  0  0
 17 18  1  0  0  0  0
 18 19  2  0  0  0  0
 19 20  1  0  0  0  0
 20 21  2  0  0  0  0
 20 22  1  0  0  0  0
 22 23  1  0  0  0  0
 23 24  2  0  0  0  0
 24 25  1  0  0  0  0
 25 26  2  0  0  0  0
 26 27  1  0  0  0  0
 27 28  1  0  0  0  0
 27 29  2  0  0  0  0
 22 30  2  0  0  0  0
 30 31  1  0  0  0  0
 31 32  2  0  0  0  0
 31 33  1  0  0  0  0
 33 34  1  0  0  0  0
  6  2  1  0  0  0  0
 15  9  1  0  0  0  0
 21 16  1  0  0  0  0
 29 23  1  0  0  0  0
 33 19  1  0  0  0  0
  1 35  1  0  0  0  0
  1 36  1  0  0  0  0
  1 37  1  0  0  0  0
  3 38  1  0  0  0  0
  5 39  1  0  0  0  0
  8 40  1  0  0  0  0
  8 41  1  0  0  0  0
  8 42  1  0  0  0  0
 10 43  1  0  0  0  0
 11 44  1  0  0  0  0
 14 45  1  0  0  0  0
 15 46  1  0  0  0  0
 17 47  1  0  0  0  0
 18 48  1  0  0  0  0
 21 49  1  0  0  0  0
 24 50  1  0  0  0  0
 25 51  1  0  0  0  0
 26 52  1  0  0  0  0
 29 53  1  0  0  0  0
 30 54  1  0  0  0  0
 34 55  1  0  0  0  0
 34 56  1  0  0  0  0
 34 57  1  0  0  0  0
M  CHG  1   8   1
M  END
>  <docking-score>
-18.18

$$$$
1MZC_BNE_1
foFlexX   03192112113D 1   1.00000     0.00000     0
FlexX 4.5.0 fol007
 69 72  0  0  0  0            999 V2000
   13.4867  131.5252   -1.9485 C   0  0  0  0  0  0  0  0  0  0  0  0
   14.8424  131.8014   -2.6151 C   0  0  0  0  0  0  0  0  0  0  0  0
   15.1115  133.2624   -2.9382 C   0  0  1  0  0  0  0  0  0  0  0  0
   16.0080  133.2982   -4.1645 C   0  0  0  0  0  0  0  0  0  0  0  0
   16.5141  132.1138   -4.6899 C   0  0  0  0  0  0  0  0  0  0  0  0
   17.3330  132.1704   -5.8132 C   0  0  0  0  0  0  0  0  0  0  0  0
   17.6479  133.3867   -6.4099 C   0  0  0  0  0  0  0  0  0  0  0  0
   17.1313  134.5592   -5.8681 C   0  0  0  0  0  0  0  0  0  0  0  0
   17.4442  135.7899   -6.4634 O   0  0  0  0  0  0  0  0  0  0  0  0
   18.5061  136.5572   -6.1378 C   0  0  0  0  0  0  0  0  0  0  0  0
   18.9864  136.5133   -4.8332 C   0  0  0  0  0  0  0  0  0  0  0  0
   20.0801  137.3014   -4.4904 C   0  0  0  0  0  0  0  0  0  0  0  0
   20.6219  137.2608   -3.0442 C   0  0  2  0  0  0  0  0  0  0  0  0
   19.5253  136.9170   -2.0092 C   0  0  0  0  0  0  0  0  0  0  0  0
   21.1732  138.5965   -2.7351 N   0  3  0  0  0  0  0  0  0  0  0  0
   21.6825  136.1757   -2.9405 C   0  0  0  0  0  0  0  0  0  0  0  0
   22.1019  135.3696   -3.9577 C   0  0  0  0  0  0  0  0  0  0  0  0
   23.0582  134.5453   -3.4428 N   0  0  0  0  0  0  0  0  0  0  0  0
   23.2183  134.8315   -2.1684 C   0  0  0  0  0  0  0  0  0  0  0  0
   22.3822  135.8470   -1.8225 N   0  0  0  0  0  0  0  0  0  0  0  0
   22.2513  136.4653   -0.4947 C   0  0  0  0  0  0  0  0  0  0  0  0
   20.6922  138.1250   -5.4297 C   0  0  0  0  0  0  0  0  0  0  0  0
   20.2033  138.1608   -6.7313 C   0  0  0  0  0  0  0  0  0  0  0  0
   19.1102  137.3767   -7.0856 C   0  0  0  0  0  0  0  0  0  0  0  0
   18.5759  137.4157   -8.5081 C   0  0  0  0  0  0  0  0  0  0  0  0
   18.1686  137.4449   -9.5910 N   0  0  0  0  0  0  0  0  0  0  0  0
   16.3104  134.5254   -4.7457 C   0  0  0  0  0  0  0  0  0  0  0  0
   13.7684  133.8998   -3.3196 C   0  0  0  0  0  0  0  0  0  0  0  0
   13.7429  135.3334   -3.8687 C   0  0  0  0  0  0  0  0  0  0  0  0
   14.7172  136.3660   -3.2886 C   0  0  0  0  0  0  0  0  0  0  0  0
   15.0255  136.3161   -1.7902 C   0  0  0  0  0  0  0  0  0  0  0  0
   15.8542  135.1938   -1.2757 N   0  0  0  0  0  0  0  0  0  0  0  0
   16.7113  135.5268   -0.1270 C   0  0  0  0  0  0  0  0  0  0  0  0
   15.8999  133.8621   -1.7622 C   0  0  0  0  0  0  0  0  0  0  0  0
   16.6579  133.1038   -1.1750 O   0  0  0  0  0  0  0  0  0  0  0  0
   12.7500  131.8257   -2.5543 H   0  0  0  0  0  0  0  0  0  0  0  0
   13.3951  130.5450   -1.7730 H   0  0  0  0  0  0  0  0  0  0  0  0
   13.4323  132.0251   -1.0841 H   0  0  0  0  0  0  0  0  0  0  0  0
   14.8800  131.2825   -3.4691 H   0  0  0  0  0  0  0  0  0  0  0  0
   15.5623  131.4819   -1.9989 H   0  0  0  0  0  0  0  0  0  0  0  0
   16.2927  131.2352   -4.2668 H   0  0  0  0  0  0  0  0  0  0  0  0
   17.7009  131.3237   -6.1974 H   0  0  0  0  0  0  0  0  0  0  0  0
   18.2373  133.4179   -7.2171 H   0  0  0  0  0  0  0  0  0  0  0  0
   18.5520  135.9240   -4.1519 H   0  0  0  0  0  0  0  0  0  0  0  0
   18.7974  137.6011   -2.0551 H   0  0  0  0  0  0  0  0  0  0  0  0
   19.1471  136.0138   -2.2119 H   0  0  0  0  0  0  0  0  0  0  0  0
   19.9224  136.9139   -1.0914 H   0  0  0  0  0  0  0  0  0  0  0  0
   20.4502  139.2826   -2.8170 H   0  0  0  0  0  0  0  0  0  0  0  0
   21.5327  138.6010   -1.8020 H   0  0  0  0  0  0  0  0  0  0  0  0
   21.9096  138.8099   -3.3771 H   0  0  0  0  0  0  0  0  0  0  0  0
   21.7711  135.3809   -4.9013 H   0  0  0  0  0  0  0  0  0  0  0  0
   23.8564  134.3731   -1.5498 H   0  0  0  0  0  0  0  0  0  0  0  0
   21.5555  137.1828   -0.5281 H   0  0  0  0  0  0  0  0  0  0  0  0
   21.9814  135.7701    0.1716 H   0  0  0  0  0  0  0  0  0  0  0  0
   23.1279  136.8634   -0.2244 H   0  0  0  0  0  0  0  0  0  0  0  0
   21.4777  138.6871   -5.1710 H   0  0  0  0  0  0  0  0  0  0  0  0
   20.6376  138.7502   -7.4125 H   0  0  0  0  0  0  0  0  0  0  0  0
   15.9425  135.3723   -4.3616 H   0  0  0  0  0  0  0  0  0  0  0  0
   13.1988  133.8925   -2.4977 H   0  0  0  0  0  0  0  0  0  0  0  0
   13.3554  133.3136   -4.0166 H   0  0  0  0  0  0  0  0  0  0  0  0
   12.8190  135.6872   -3.7230 H   0  0  0  0  0  0  0  0  0  0  0  0
   13.9267  135.2753   -4.8500 H   0  0  0  0  0  0  0  0  0  0  0  0
   15.5855  136.2575   -3.7727 H   0  0  0  0  0  0  0  0  0  0  0  0
   14.3385  137.2710   -3.4824 H   0  0  0  0  0  0  0  0  0  0  0  0
   15.5003  137.1650   -1.5576 H   0  0  0  0  0  0  0  0  0  0  0  0
   14.1495  136.2815   -1.3091 H   0  0  0  0  0  0  0  0  0  0  0  0
   17.2253  134.7155    0.1516 H   0  0  0  0  0  0  0  0  0  0  0  0
   17.3486  136.2525   -0.3859 H   0  0  0  0  0  0  0  0  0  0  0  0
   16.1424  135.8385    0.6340 H   0  0  0  0  0  0  0  0  0  0  0  0
  1  2  1  0  0  0  0
  2  3  1  0  0  0  0
  3  4  1  0  0  0  0
  4  5  2  0  0  0  0
  5  6  1  0  0  0  0
  6  7  2  0  0  0  0
  7  8  1  0  0  0  0
  8  9  1  0  0  0  0
  9 10  1  0  0  0  0
 10 11  2  0  0  0  0
 11 12  1  0  0  0  0
 12 13  1  0  0  0  0
 13 14  1  0  0  0  0
 13 15  1  0  0  0  0
 13 16  1  0  0  0  0
 16 17  2  0  0  0  0
 17 18  1  0  0  0  0
 18 19  2  0  0  0  0
 19 20  1  0  0  0  0
 20 21  1  0  0  0  0
 12 22  2  0  0  0  0
 22 23  1  0  0  0  0
 23 24  2  0  0  0  0
 24 25  1  0  0  0  0
 25 26  3  0  0  0  0
  8 27  2  0  0  0  0
  3 28  1  0  0  0  0
 28 29  1  0  0  0  0
 29 30  1  0  0  0  0
 30 31  1  0  0  0  0
 31 32  1  0  0  0  0
 32 33  1  0  0  0  0
 32 34  1  0  0  0  0
 34 35  2  0  0  0  0
 34  3  1  0  0  0  0
 27  4  1  0  0  0  0
 24 10  1  0  0  0  0
 20 16  1  0  0  0  0
  1 36  1  0  0  0  0
  1 37  1  0  0  0  0
  1 38  1  0  0  0  0
  2 39  1  0  0  0  0
  2 40  1  0  0  0  0
  5 41  1  0  0  0  0
  6 42  1  0  0  0  0
  7 43  1  0  0  0  0
 11 44  1  0  0  0  0
 14 45  1  0  0  0  0
 14 46  1  0  0  0  0
 14 47  1  0  0  0  0
 15 48  1  0  0  0  0
 15 49  1  0  0  0  0
 15 50  1  0  0  0  0
 17 51  1  0  0  0  0
 19 52  1  0  0  0  0
 21 53  1  0  0  0  0
 21 54  1  0  0  0  0
 21 55  1  0  0  0  0
 22 56  1  0  0  0  0
 23 57  1  0  0  0  0
 27 58  1  0  0  0  0
 28 59  1  0  0  0  0
 28 60  1  0  0  0  0
 29 61  1  0  0  0  0
 29 62  1  0  0  0  0
 30 63  1  0  0  0  0
 30 64  1  0  0  0  0
 31 65  1  0  0  0  0
 31 66  1  0  0  0  0
 33 67  1  0  0  0  0
 33 68  1  0  0  0  0
 33 69  1  0  0  0  0
M  CHG  1  15   1
M  END
>  <docking-score>
-23.77

$$$$
1MZC_BNE_2
foFlexX   03192112113D 1   1.00000     0.00000     0
FlexX 4.5.0 fol007
 69 72  0  0  0  0            999 V2000
   13.7512  136.7676   -4.4294 C   0  0  0  0  0  0  0  0  0  0  0  0
   13.8054  136.9293   -2.9031 C   0  0  0  0  0  0  0  0  0  0  0  0
   15.0235  136.3172   -2.2386 C   0  0  1  0  0  0  0  0  0  0  0  0
   15.0260  134.8280   -2.5406 C   0  0  0  0  0  0  0  0  0  0  0  0
   13.9279  134.2436   -3.1634 C   0  0  0  0  0  0  0  0  0  0  0  0
   13.9519  132.8785   -3.4301 C   0  0  0  0  0  0  0  0  0  0  0  0
   15.0511  132.0998   -3.0837 C   0  0  0  0  0  0  0  0  0  0  0  0
   16.1385  132.7044   -2.4614 C   0  0  0  0  0  0  0  0  0  0  0  0
   17.2095  131.9552   -2.1215 O   0  0  0  0  0  0  0  0  0  0  0  0
   18.5319  132.4244   -2.0630 C   0  0  0  0  0  0  0  0  0  0  0  0
   19.2117  132.3554   -0.8515 C   0  0  0  0  0  0  0  0  0  0  0  0
   20.5217  132.8185   -0.7860 C   0  0  0  0  0  0  0  0  0  0  0  0
   21.2741  132.7483    0.5332 C   0  0  2  0  0  0  0  0  0  0  0  0
   22.2942  133.8993    0.6963 C   0  0  0  0  0  0  0  0  0  0  0  0
   21.9944  131.4586    0.5695 N   0  3  0  0  0  0  0  0  0  0  0  0
   20.2701  132.8736    1.6928 C   0  0  0  0  0  0  0  0  0  0  0  0
   20.0631  131.9480    2.6731 C   0  0  0  0  0  0  0  0  0  0  0  0
   19.0981  132.4495    3.4954 N   0  0  0  0  0  0  0  0  0  0  0  0
   18.7291  133.6280    3.0410 C   0  0  0  0  0  0  0  0  0  0  0  0
   19.4431  133.9275    1.9227 N   0  0  0  0  0  0  0  0  0  0  0  0
   19.3366  135.1497    1.1119 C   0  0  0  0  0  0  0  0  0  0  0  0
   21.1525  133.3447   -1.9087 C   0  0  0  0  0  0  0  0  0  0  0  0
   20.4630  133.4086   -3.1150 C   0  0  0  0  0  0  0  0  0  0  0  0
   19.1525  132.9482   -3.1923 C   0  0  0  0  0  0  0  0  0  0  0  0
   18.3989  133.0179   -4.5105 C   0  0  0  0  0  0  0  0  0  0  0  0
   17.8246  133.0707   -5.5139 N   0  0  0  0  0  0  0  0  0  0  0  0
   16.1356  134.0676   -2.1856 C   0  0  0  0  0  0  0  0  0  0  0  0
   16.2068  136.9182   -3.0006 C   0  0  0  0  0  0  0  0  0  0  0  0
   17.6123  136.5754   -2.5005 C   0  0  0  0  0  0  0  0  0  0  0  0
   18.0409  137.3108   -1.2347 C   0  0  0  0  0  0  0  0  0  0  0  0
   17.4190  136.8026    0.0768 C   0  0  0  0  0  0  0  0  0  0  0  0
   15.9415  136.7270    0.2505 N   0  0  0  0  0  0  0  0  0  0  0  0
   15.4910  136.8948    1.6401 C   0  0  0  0  0  0  0  0  0  0  0  0
   14.9155  136.5242   -0.7187 C   0  0  0  0  0  0  0  0  0  0  0  0
   13.7781  136.5149   -0.2802 O   0  0  0  0  0  0  0  0  0  0  0  0
   13.7466  135.7949   -4.6616 H   0  0  0  0  0  0  0  0  0  0  0  0
   12.9200  137.1982   -4.7809 H   0  0  0  0  0  0  0  0  0  0  0  0
   14.5519  137.2044   -4.8395 H   0  0  0  0  0  0  0  0  0  0  0  0
   12.9906  136.4977   -2.5160 H   0  0  0  0  0  0  0  0  0  0  0  0
   13.7960  137.9071   -2.6939 H   0  0  0  0  0  0  0  0  0  0  0  0
   13.1336  134.7963   -3.4155 H   0  0  0  0  0  0  0  0  0  0  0  0
   13.1668  132.4504   -3.8777 H   0  0  0  0  0  0  0  0  0  0  0  0
   15.0596  131.1191   -3.2793 H   0  0  0  0  0  0  0  0  0  0  0  0
   18.7654  131.9787   -0.0398 H   0  0  0  0  0  0  0  0  0  0  0  0
   22.9593  133.8634   -0.0496 H   0  0  0  0  0  0  0  0  0  0  0  0
   21.8139  134.7761    0.6727 H   0  0  0  0  0  0  0  0  0  0  0  0
   22.7688  133.8026    1.5711 H   0  0  0  0  0  0  0  0  0  0  0  0
   21.8133  130.9518   -0.2734 H   0  0  0  0  0  0  0  0  0  0  0  0
   22.9765  131.6275    0.6523 H   0  0  0  0  0  0  0  0  0  0  0  0
   21.6808  130.9236    1.3540 H   0  0  0  0  0  0  0  0  0  0  0  0
   20.5301  131.0691    2.7701 H   0  0  0  0  0  0  0  0  0  0  0  0
   18.0314  134.2132    3.4542 H   0  0  0  0  0  0  0  0  0  0  0  0
   19.9756  135.0974    0.3445 H   0  0  0  0  0  0  0  0  0  0  0  0
   18.4035  135.2381    0.7632 H   0  0  0  0  0  0  0  0  0  0  0  0
   19.5581  135.9447    1.6766 H   0  0  0  0  0  0  0  0  0  0  0  0
   22.0946  133.6746   -1.8489 H   0  0  0  0  0  0  0  0  0  0  0  0
   20.9093  133.7855   -3.9266 H   0  0  0  0  0  0  0  0  0  0  0  0
   16.9208  134.4956   -1.7381 H   0  0  0  0  0  0  0  0  0  0  0  0
   16.1109  137.9130   -2.9679 H   0  0  0  0  0  0  0  0  0  0  0  0
   16.1417  136.6081   -3.9491 H   0  0  0  0  0  0  0  0  0  0  0  0
   18.2633  136.7998   -3.2257 H   0  0  0  0  0  0  0  0  0  0  0  0
   17.6451  135.5932   -2.3153 H   0  0  0  0  0  0  0  0  0  0  0  0
   19.0345  137.2305   -1.1546 H   0  0  0  0  0  0  0  0  0  0  0  0
   17.7917  138.2735   -1.3397 H   0  0  0  0  0  0  0  0  0  0  0  0
   17.7688  135.8762    0.2163 H   0  0  0  0  0  0  0  0  0  0  0  0
   17.7597  137.4003    0.8026 H   0  0  0  0  0  0  0  0  0  0  0  0
   14.4934  136.8362    1.6765 H   0  0  0  0  0  0  0  0  0  0  0  0
   15.8882  136.1744    2.2086 H   0  0  0  0  0  0  0  0  0  0  0  0
   15.7851  137.7880    1.9802 H   0  0  0  0  0  0  0  0  0  0  0  0
  1  2  1  0  0  0  0
  2  3  1  0  0  0  0
  3  4  1  0  0  0  0
  4  5  2  0  0  0  0
  5  6  1  0  0  0  0
  6  7  2  0  0  0  0
  7  8  1  0  0  0  0
  8  9  1  0  0  0  0
  9 10  1  0  0  0  0
 10 11  2  0  0  0  0
 11 12  1  0  0  0  0
 12 13  1  0  0  0  0
 13 14  1  0  0  0  0
 13 15  1  0  0  0  0
 13 16  1  0  0  0  0
 16 17  2  0  0  0  0
 17 18  1  0  0  0  0
 18 19  2  0  0  0  0
 19 20  1  0  0  0  0
 20 21  1  0  0  0  0
 12 22  2  0  0  0  0
 22 23  1  0  0  0  0
 23 24  2  0  0  0  0
 24 25  1  0  0  0  0
 25 26  3  0  0  0  0
  8 27  2  0  0  0  0
  3 28  1  0  0  0  0
 28 29  1  0  0  0  0
 29 30  1  0  0  0  0
 30 31  1  0  0  0  0
 31 32  1  0  0  0  0
 32 33  1  0  0  0  0
 32 34  1  0  0  0  0
 34 35  2  0  0  0  0
 34  3  1  0  0  0  0
 27  4  1  0  0  0  0
 24 10  1  0  0  0  0
 20 16  1  0  0  0  0
  1 36  1  0  0  0  0
  1 37  1  0  0  0  0
  1 38  1  0  0  0  0
  2 39  1  0  0  0  0
  2 40  1  0  0  0  0
  5 41  1  0  0  0  0
  6 42  1  0  0  0  0
  7 43  1  0  0  0  0
 11 44  1  0  0  0  0
 14 45  1  0  0  0  0
 14 46  1  0  0  0  0
 14 47  1  0  0  0  0
 15 48  1  0  0  0  0
 15 49  1  0  0  0  0
 15 50  1  0  0  0  0
 17 51  1  0  0  0  0
 19 52  1  0  0  0  0
 21 53  1  0  0  0  0
 21 54  1  0  0  0  0
 21 55  1  0  0  0  0
 22 56  1  0  0  0  0
 23 57  1  0  0  0  0
 27 58  1  0  0  0  0
 28 59  1  0  0  0  0
 28 60  1  0  0  0  0
 29 61  1  0  0  0  0
 29 62  1  0  0  0  0
 30 63  1  0  0  0  0
 30 64  1  0  0  0  0
 31 65  1  0  0  0  0
 31 66  1  0  0  0  0
 33 67  1  0  0  0  0
 33 68  1  0  0  0  0
 33 69  1  0  0  0  0
M  CHG  1  15   1
M  END
>  <docking-score>
-23.23

$$$$
1MZC_BNE_3
foFlexX   03192112113D 1   1.00000     0.00000     0
FlexX 4.5.0 fol007
 69 72  0  0  0  0            999 V2000
   15.1128  135.9924   -5.8974 C   0  0  0  0  0  0  0  0  0  0  0  0
   14.5172  136.5485   -4.5956 C   0  0  0  0  0  0  0  0  0  0  0  0
   15.2704  136.1688   -3.3351 C   0  0  1  0  0  0  0  0  0  0  0  0
   15.2717  134.6533   -3.2261 C   0  0  0  0  0  0  0  0  0  0  0  0
   14.2321  133.9157   -3.7833 C   0  0  0  0  0  0  0  0  0  0  0  0
   14.2539  132.5292   -3.6714 C   0  0  0  0  0  0  0  0  0  0  0  0
   15.2937  131.8795   -3.0145 C   0  0  0  0  0  0  0  0  0  0  0  0
   16.3231  132.6363   -2.4644 C   0  0  0  0  0  0  0  0  0  0  0  0
   17.3362  132.0131   -1.8246 O   0  0  0  0  0  0  0  0  0  0  0  0
   18.6552  132.4899   -1.7533 C   0  0  0  0  0  0  0  0  0  0  0  0
   19.2031  132.7530   -0.5022 C   0  0  0  0  0  0  0  0  0  0  0  0
   20.5089  133.2257   -0.4238 C   0  0  0  0  0  0  0  0  0  0  0  0
   21.1179  133.5169    0.9384 C   0  0  2  0  0  0  0  0  0  0  0  0
   21.5115  135.0030    1.1069 C   0  0  0  0  0  0  0  0  0  0  0  0
   22.3281  132.6803    1.0757 N   0  3  0  0  0  0  0  0  0  0  0  0
   20.0806  133.2029    2.0311 C   0  0  0  0  0  0  0  0  0  0  0  0
   20.2325  132.2970    3.0394 C   0  0  0  0  0  0  0  0  0  0  0  0
   19.0887  132.3323    3.7806 N   0  0  0  0  0  0  0  0  0  0  0  0
   18.2720  133.2182    3.2518 C   0  0  0  0  0  0  0  0  0  0  0  0
   18.8596  133.7852    2.1640 N   0  0  0  0  0  0  0  0  0  0  0  0
   18.2842  134.8207    1.2928 C   0  0  0  0  0  0  0  0  0  0  0  0
   21.2649  133.4361   -1.5726 C   0  0  0  0  0  0  0  0  0  0  0  0
   20.7066  133.1695   -2.8183 C   0  0  0  0  0  0  0  0  0  0  0  0
   19.4016  132.6962   -2.9088 C   0  0  0  0  0  0  0  0  0  0  0  0
   18.7914  132.4047   -4.2701 C   0  0  0  0  0  0  0  0  0  0  0  0
   18.3263  132.1827   -5.3064 N   0  0  0  0  0  0  0  0  0  0  0  0
   16.3213  134.0235   -2.5649 C   0  0  0  0  0  0  0  0  0  0  0  0
   16.7144  136.5862   -3.6224 C   0  0  0  0  0  0  0  0  0  0  0  0
   17.7304  136.4292   -2.4883 C   0  0  0  0  0  0  0  0  0  0  0  0
   17.6340  137.4824   -1.3890 C   0  0  0  0  0  0  0  0  0  0  0  0
   16.4651  137.3152   -0.4037 C   0  0  0  0  0  0  0  0  0  0  0  0
   15.0569  137.2421   -0.8839 N   0  0  0  0  0  0  0  0  0  0  0  0
   14.0677  137.7528    0.0767 C   0  0  0  0  0  0  0  0  0  0  0  0
   14.5360  136.7619   -2.1213 C   0  0  0  0  0  0  0  0  0  0  0  0
   13.3247  136.8323   -2.2399 O   0  0  0  0  0  0  0  0  0  0  0  0
   15.1231  134.9932   -5.8591 H   0  0  0  0  0  0  0  0  0  0  0  0
   14.5559  136.2905   -6.6727 H   0  0  0  0  0  0  0  0  0  0  0  0
   16.0470  136.3314   -6.0081 H   0  0  0  0  0  0  0  0  0  0  0  0
   13.5807  136.2080   -4.5123 H   0  0  0  0  0  0  0  0  0  0  0  0
   14.5046  137.5462   -4.6612 H   0  0  0  0  0  0  0  0  0  0  0  0
   13.4807  134.3750   -4.2570 H   0  0  0  0  0  0  0  0  0  0  0  0
   13.5106  131.9914   -4.0692 H   0  0  0  0  0  0  0  0  0  0  0  0
   15.3011  130.8824   -2.9388 H   0  0  0  0  0  0  0  0  0  0  0  0
   18.6664  132.6045    0.3284 H   0  0  0  0  0  0  0  0  0  0  0  0
   22.1763  135.2536    0.4031 H   0  0  0  0  0  0  0  0  0  0  0  0
   20.6971  135.5760    1.0152 H   0  0  0  0  0  0  0  0  0  0  0  0
   21.9156  135.1404    2.0112 H   0  0  0  0  0  0  0  0  0  0  0  0
   22.7303  132.5251    0.1734 H   0  0  0  0  0  0  0  0  0  0  0  0
   22.9915  133.1471    1.6605 H   0  0  0  0  0  0  0  0  0  0  0  0
   22.0816  131.8024    1.4862 H   0  0  0  0  0  0  0  0  0  0  0  0
   21.0307  131.7175    3.2038 H   0  0  0  0  0  0  0  0  0  0  0  0
   17.3600  133.4403    3.5966 H   0  0  0  0  0  0  0  0  0  0  0  0
   18.9344  135.0447    0.5669 H   0  0  0  0  0  0  0  0  0  0  0  0
   17.4355  134.4812    0.8871 H   0  0  0  0  0  0  0  0  0  0  0  0
   18.0912  135.6405    1.8321 H   0  0  0  0  0  0  0  0  0  0  0  0
   22.2026  133.7764   -1.5033 H   0  0  0  0  0  0  0  0  0  0  0  0
   21.2433  133.3181   -3.6489 H   0  0  0  0  0  0  0  0  0  0  0  0
   17.0647  134.5612   -2.1671 H   0  0  0  0  0  0  0  0  0  0  0  0
   16.7018  137.5517   -3.8825 H   0  0  0  0  0  0  0  0  0  0  0  0
   17.0379  136.0375   -4.3933 H   0  0  0  0  0  0  0  0  0  0  0  0
   18.6475  136.4765   -2.8842 H   0  0  0  0  0  0  0  0  0  0  0  0
   17.5935  135.5309   -2.0708 H   0  0  0  0  0  0  0  0  0  0  0  0
   18.4844  137.4564   -0.8636 H   0  0  0  0  0  0  0  0  0  0  0  0
   17.5403  138.3762   -1.8276 H   0  0  0  0  0  0  0  0  0  0  0  0
   16.6374  136.4685    0.0998 H   0  0  0  0  0  0  0  0  0  0  0  0
   16.5105  138.0918    0.2247 H   0  0  0  0  0  0  0  0  0  0  0  0
   13.1512  137.6751   -0.3155 H   0  0  0  0  0  0  0  0  0  0  0  0
   14.1157  137.2183    0.9205 H   0  0  0  0  0  0  0  0  0  0  0  0
   14.2637  138.7125    0.2784 H   0  0  0  0  0  0  0  0  0  0  0  0
  1  2  1  0  0  0  0
  2  3  1  0  0  0  0
  3  4  1  0  0  0  0
  4  5  2  0  0  0  0
  5  6  1  0  0  0  0
  6  7  2  0  0  0  0
  7  8  1  0  0  0  0
  8  9  1  0  0  0  0
  9 10  1  0  0  0  0
 10 11  2  0  0  0  0
 11 12  1  0  0  0  0
 12 13  1  0  0  0  0
 13 14  1  0  0  0  0
 13 15  1  0  0  0  0
 13 16  1  0  0  0  0
 16 17  2  0  0  0  0
 17 18  1  0  0  0  0
 18 19  2  0  0  0  0
 19 20  1  0  0  0  0
 20 21  1  0  0  0  0
 12 22  2  0  0  0  0
 22 23  1  0  0  0  0
 23 24  2  0  0  0  0
 24 25  1  0  0  0  0
 25 26  3  0  0  0  0
  8 27  2  0  0  0  0
  3 28  1  0  0  0  0
 28 29  1  0  0  0  0
 29 30  1  0  0  0  0
 30 31  1  0  0  0  0
 31 32  1  0  0  0  0
 32 33  1  0  0  0  0
 32 34  1  0  0  0  0
 34 35  2  0  0  0  0
 34  3  1  0  0  0  0
 27  4  1  0  0  0  0
 24 10  1  0  0  0  0
 20 16  1  0  0  0  0
  1 36  1  0  0  0  0
  1 37  1  0  0  0  0
  1 38  1  0  0  0  0
  2 39  1  0  0  0  0
  2 40  1  0  0  0  0
  5 41  1  0  0  0  0
  6 42  1  0  0  0  0
  7 43  1  0  0  0  0
 11 44  1  0  0  0  0
 14 45  1  0  0  0  0
 14 46  1  0  0  0  0
 14 47  1  0  0  0  0
 15 48  1  0  0  0  0
 15 49  1  0  0  0  0
 15 50  1  0  0  0  0
 17 51  1  0  0  0  0
 19 52  1  0  0  0  0
 21 53  1  0  0  0  0
 21 54  1  0  0  0  0
 21 55  1  0  0  0  0
 22 56  1  0  0  0  0
 23 57  1  0  0  0  0
 27 58  1  0  0  0  0
 28 59  1  0  0  0  0
 28 60  1  0  0  0  0
 29 61  1  0  0  0  0
 29 62  1  0  0  0  0
 30 63  1  0  0  0  0
 30 64  1  0  0  0  0
 31 65  1  0  0  0  0
 31 66  1  0  0  0  0
 33 67  1  0  0  0  0
 33 68  1  0  0  0  0
 33 69  1  0  0  0  0
M  CHG  1  15   1
M  END
>  <docking-score>
-23.15

$$$$
1LD7_U66_1
foFlexX   03192112113D 1   1.00000     0.00000     0
FlexX 4.5.0 fol007
 62 67  0  0  0  0            999 V2000
   13.6415  138.0804    1.2306 N   0  0  0  0  0  0  0  0  0  0  0  0
   14.5373  137.3520    1.1506 C   0  0  0  0  0  0  0  0  0  0  0  0
   15.6763  136.4252    1.0482 C   0  0  2  0  0  0  0  0  0  0  0  0
   16.9956  137.2087    0.9929 C   0  0  0  0  0  0  0  0  0  0  0  0
   18.1708  136.2875    0.8005 C   0  0  0  0  0  0  0  0  0  0  0  0
   18.0725  135.0813    0.1970 C   0  0  0  0  0  0  0  0  0  0  0  0
   16.7229  134.5306   -0.2549 C   0  0  0  0  0  0  0  0  0  0  0  0
   15.5494  135.5438   -0.2029 C   0  0  2  0  0  0  0  0  0  0  0  0
   15.5441  136.3802   -1.3637 O   0  0  0  0  0  0  0  0  0  0  0  0
   15.3281  135.9302   -2.6694 C   0  0  0  0  0  0  0  0  0  0  0  0
   14.3500  134.9777   -2.9924 C   0  0  0  0  0  0  0  0  0  0  0  0
   14.2131  134.5378   -4.3144 C   0  0  0  0  0  0  0  0  0  0  0  0
   15.1156  134.9716   -5.3009 C   0  0  0  0  0  0  0  0  0  0  0  0
   15.0233  134.4945   -6.6155 C   0  0  0  0  0  0  0  0  0  0  0  0
   15.9741  134.8716   -7.5662 C   0  0  0  0  0  0  0  0  0  0  0  0
   17.0569  135.6763   -7.2023 C   0  0  0  0  0  0  0  0  0  0  0  0
   17.1825  136.1534   -5.8878 C   0  0  0  0  0  0  0  0  0  0  0  0
   16.1503  135.8746   -4.9555 C   0  0  0  0  0  0  0  0  0  0  0  0
   16.1457  136.4430   -3.6704 C   0  0  0  0  0  0  0  0  0  0  0  0
   18.4259  136.7550   -5.4673 N   0  0  0  0  0  0  0  0  0  0  0  0
   19.1643  137.7883   -6.1777 C   0  0  0  0  0  0  0  0  0  0  0  0
   20.4532  138.0206   -5.3550 C   0  0  0  0  0  0  0  0  0  0  0  0
   20.1925  137.4135   -3.9616 C   0  0  2  0  0  0  0  0  0  0  0  0
   21.3778  136.7514   -3.3781 N   0  3  0  0  0  0  0  0  0  0  0  0
   21.2141  136.5316   -1.9179 C   0  0  0  0  0  0  0  0  0  0  0  0
   21.7467  135.1628   -1.4639 C   0  0  0  0  0  0  0  0  0  0  0  0
   20.7801  134.0528   -1.7930 C   0  0  0  0  0  0  0  0  0  0  0  0
   20.8383  133.2598   -2.9196 C   0  0  0  0  0  0  0  0  0  0  0  0
   19.8093  132.3900   -2.9095 N   0  0  0  0  0  0  0  0  0  0  0  0
   19.1381  132.6741   -1.7737 C   0  0  0  0  0  0  0  0  0  0  0  0
   19.6916  133.6888   -1.0770 N   0  0  0  0  0  0  0  0  0  0  0  0
   19.2652  134.1403    0.2522 C   0  0  0  0  0  0  0  0  0  0  0  0
   19.1048  136.4552   -4.2607 C   0  0  0  0  0  0  0  0  0  0  0  0
   18.8071  135.4713   -3.5333 O   0  0  0  0  0  0  0  0  0  0  0  0
   15.6856  135.8366    1.8566 H   0  0  0  0  0  0  0  0  0  0  0  0
   17.1123  137.7112    1.8497 H   0  0  0  0  0  0  0  0  0  0  0  0
   16.9594  137.8544    0.2302 H   0  0  0  0  0  0  0  0  0  0  0  0
   19.0663  136.5814    1.1348 H   0  0  0  0  0  0  0  0  0  0  0  0
   16.4908  133.7568    0.3345 H   0  0  0  0  0  0  0  0  0  0  0  0
   16.8176  134.2140   -1.1987 H   0  0  0  0  0  0  0  0  0  0  0  0
   14.6864  135.0404   -0.1604 H   0  0  0  0  0  0  0  0  0  0  0  0
   13.7512  134.6135   -2.2791 H   0  0  0  0  0  0  0  0  0  0  0  0
   13.4711  133.9131   -4.5577 H   0  0  0  0  0  0  0  0  0  0  0  0
   14.2752  133.8830   -6.8731 H   0  0  0  0  0  0  0  0  0  0  0  0
   15.8795  134.5640   -8.5130 H   0  0  0  0  0  0  0  0  0  0  0  0
   17.7485  135.9146   -7.8841 H   0  0  0  0  0  0  0  0  0  0  0  0
   16.7371  137.2250   -3.4736 H   0  0  0  0  0  0  0  0  0  0  0  0
   18.6261  138.6296   -6.2280 H   0  0  0  0  0  0  0  0  0  0  0  0
   19.3910  137.4819   -7.1022 H   0  0  0  0  0  0  0  0  0  0  0  0
   20.6421  138.9995   -5.2764 H   0  0  0  0  0  0  0  0  0  0  0  0
   21.2293  137.5654   -5.7914 H   0  0  0  0  0  0  0  0  0  0  0  0
   19.8590  138.1221   -3.3397 H   0  0  0  0  0  0  0  0  0  0  0  0
   22.1807  137.3274   -3.5321 H   0  0  0  0  0  0  0  0  0  0  0  0
   21.5105  135.8678   -3.8270 H   0  0  0  0  0  0  0  0  0  0  0  0
   20.2415  136.5879   -1.6924 H   0  0  0  0  0  0  0  0  0  0  0  0
   21.7118  137.2476   -1.4282 H   0  0  0  0  0  0  0  0  0  0  0  0
   21.8925  135.1833   -0.4748 H   0  0  0  0  0  0  0  0  0  0  0  0
   22.6156  134.9836   -1.9253 H   0  0  0  0  0  0  0  0  0  0  0  0
   21.5360  133.3209   -3.6335 H   0  0  0  0  0  0  0  0  0  0  0  0
   18.3173  132.1845   -1.4794 H   0  0  0  0  0  0  0  0  0  0  0  0
   20.0286  134.6166    0.6885 H   0  0  0  0  0  0  0  0  0  0  0  0
   19.0163  133.3399    0.7975 H   0  0  0  0  0  0  0  0  0  0  0  0
  1  2  3  0  0  0  0
  2  3  1  0  0  0  0
  3  4  1  0  0  0  0
  4  5  1  0  0  0  0
  5  6  2  0  0  0  0
  6  7  1  0  0  0  0
  7  8  1  0  0  0  0
  8  9  1  0  0  0  0
  9 10  1  0  0  0  0
 10 11  2  0  0  0  0
 11 12  1  0  0  0  0
 12 13  2  0  0  0  0
 13 14  1  0  0  0  0
 14 15  2  0  0  0  0
 15 16  1  0  0  0  0
 16 17  2  0  0  0  0
 17 18  1  0  0  0  0
 18 19  2  0  0  0  0
 17 20  1  0  0  0  0
 20 21  1  0  0  0  0
 21 22  1  0  0  0  0
 22 23  1  0  0  0  0
 23 24  1  0  0  0  0
 24 25  1  0  0  0  0
 25 26  1  0  0  0  0
 26 27  1  0  0  0  0
 27 28  2  0  0  0  0
 28 29  1  0  0  0  0
 29 30  2  0  0  0  0
 30 31  1  0  0  0  0
 31 32  1  0  0  0  0
 23 33  1  0  0  0  0
 33 34  2  0  0  0  0
  8  3  1  0  0  0  0
 19 10  1  0  0  0  0
 33 20  1  0  0  0  0
 32  6  1  0  0  0  0
 18 13  1  0  0  0  0
 31 27  1  0  0  0  0
  3 35  1  0  0  0  0
  4 36  1  0  0  0  0
  4 37  1  0  0  0  0
  5 38  1  0  0  0  0
  7 39  1  0  0  0  0
  7 40  1  0  0  0  0
  8 41  1  0  0  0  0
 11 42  1  0  0  0  0
 12 43  1  0  0  0  0
 14 44  1  0  0  0  0
 15 45  1  0  0  0  0
 16 46  1  0  0  0  0
 19 47  1  0  0  0  0
 21 48  1  0  0  0  0
 21 49  1  0  0  0  0
 22 50  1  0  0  0  0
 22 51  1  0  0  0  0
 23 52  1  0  0  0  0
 24 53  1  0  0  0  0
 24 54  1  0  0  0  0
 25 55  1  0  0  0  0
 25 56  1  0  0  0  0
 26 57  1  0  0  0  0
 26 58  1  0  0  0  0
 28 59  1  0  0  0  0
 30 60  1  0  0  0  0
 32 61  1  0  0  0  0
 32 62  1  0  0  0  0
M  CHG  1  24   1
M  END
>  <docking-score>
-19.42

$$$$
1LD7_U66_2
foFlexX   03192112113D 1   1.00000     0.00000     0
FlexX 4.5.0 fol007
 62 67  0  0  0  0            999 V2000
   20.0196  137.2704   -7.7700 N   0  0  0  0  0  0  0  0  0  0  0  0
   19.4322  137.6987   -6.8696 C   0  0  0  0  0  0  0  0  0  0  0  0
   18.6844  138.2430   -5.7244 C   0  0  2  0  0  0  0  0  0  0  0  0
   19.5683  138.2532   -4.4690 C   0  0  0  0  0  0  0  0  0  0  0  0
   18.7998  138.7245   -3.2632 C   0  0  0  0  0  0  0  0  0  0  0  0
   17.4583  138.5991   -3.1472 C   0  0  0  0  0  0  0  0  0  0  0  0
   16.6140  138.0430   -4.2904 C   0  0  0  0  0  0  0  0  0  0  0  0
   17.4205  137.4131   -5.4563 C   0  0  2  0  0  0  0  0  0  0  0  0
   17.8023  136.0694   -5.1467 O   0  0  0  0  0  0  0  0  0  0  0  0
   16.9095  135.0100   -4.9600 C   0  0  0  0  0  0  0  0  0  0  0  0
   15.7842  134.8128   -5.7742 C   0  0  0  0  0  0  0  0  0  0  0  0
   14.9057  133.7558   -5.5074 C   0  0  0  0  0  0  0  0  0  0  0  0
   15.0915  132.9521   -4.3692 C   0  0  0  0  0  0  0  0  0  0  0  0
   14.1868  131.9271   -4.0610 C   0  0  0  0  0  0  0  0  0  0  0  0
   14.3385  131.1887   -2.8854 C   0  0  0  0  0  0  0  0  0  0  0  0
   15.3540  131.5039   -1.9788 C   0  0  0  0  0  0  0  0  0  0  0  0
   16.2630  132.5375   -2.2553 C   0  0  0  0  0  0  0  0  0  0  0  0
   16.1859  133.2023   -3.5061 C   0  0  0  0  0  0  0  0  0  0  0  0
   17.1528  134.1424   -3.9010 C   0  0  0  0  0  0  0  0  0  0  0  0
   17.1299  133.0193   -1.2059 N   0  0  0  0  0  0  0  0  0  0  0  0
   17.9464  132.2009   -0.3220 C   0  0  0  0  0  0  0  0  0  0  0  0
   18.6128  133.1886    0.6641 C   0  0  0  0  0  0  0  0  0  0  0  0
   18.4889  134.5870    0.0259 C   0  0  2  0  0  0  0  0  0  0  0  0
   18.2276  135.6600    1.0079 N   0  3  0  0  0  0  0  0  0  0  0  0
   18.4997  137.0022    0.4321 C   0  0  0  0  0  0  0  0  0  0  0  0
   17.4505  138.0462    0.8477 C   0  0  0  0  0  0  0  0  0  0  0  0
   16.1780  137.9039    0.0508 C   0  0  0  0  0  0  0  0  0  0  0  0
   15.0632  137.2014    0.4571 C   0  0  0  0  0  0  0  0  0  0  0  0
   14.1218  137.2583   -0.5052 N   0  0  0  0  0  0  0  0  0  0  0  0
   14.6855  137.9943   -1.4860 C   0  0  0  0  0  0  0  0  0  0  0  0
   15.9403  138.3917   -1.1885 N   0  0  0  0  0  0  0  0  0  0  0  0
   16.7581  139.3035   -1.9963 C   0  0  0  0  0  0  0  0  0  0  0  0
   17.3518  134.3845   -0.8999 C   0  0  0  0  0  0  0  0  0  0  0  0
   16.6451  135.3154   -1.3687 O   0  0  0  0  0  0  0  0  0  0  0  0
   18.4136  139.1825   -5.9345 H   0  0  0  0  0  0  0  0  0  0  0  0
   20.3436  138.8662   -4.6212 H   0  0  0  0  0  0  0  0  0  0  0  0
   19.9042  137.3266   -4.2995 H   0  0  0  0  0  0  0  0  0  0  0  0
   19.3051  139.1503   -2.5127 H   0  0  0  0  0  0  0  0  0  0  0  0
   16.0644  138.7911   -4.6623 H   0  0  0  0  0  0  0  0  0  0  0  0
   16.0098  137.3397   -3.9159 H   0  0  0  0  0  0  0  0  0  0  0  0
   16.8530  137.4088   -6.2797 H   0  0  0  0  0  0  0  0  0  0  0  0
   15.6098  135.4264   -6.5444 H   0  0  0  0  0  0  0  0  0  0  0  0
   14.1436  133.5721   -6.1283 H   0  0  0  0  0  0  0  0  0  0  0  0
   13.4314  131.7242   -4.6839 H   0  0  0  0  0  0  0  0  0  0  0  0
   13.7167  130.4300   -2.6912 H   0  0  0  0  0  0  0  0  0  0  0  0
   15.4340  130.9886   -1.1255 H   0  0  0  0  0  0  0  0  0  0  0  0
   18.0256  134.1880   -3.4150 H   0  0  0  0  0  0  0  0  0  0  0  0
   18.6416  131.7085   -0.8457 H   0  0  0  0  0  0  0  0  0  0  0  0
   17.3756  131.5457    0.1729 H   0  0  0  0  0  0  0  0  0  0  0  0
   19.5755  132.9515    0.7941 H   0  0  0  0  0  0  0  0  0  0  0  0
   18.1422  133.1677    1.5462 H   0  0  0  0  0  0  0  0  0  0  0  0
   19.3167  134.7972   -0.4942 H   0  0  0  0  0  0  0  0  0  0  0  0
   18.8167  135.5224    1.8042 H   0  0  0  0  0  0  0  0  0  0  0  0
   17.2694  135.6157    1.2906 H   0  0  0  0  0  0  0  0  0  0  0  0
   18.5011  136.9288   -0.5652 H   0  0  0  0  0  0  0  0  0  0  0  0
   19.3985  137.3090    0.7450 H   0  0  0  0  0  0  0  0  0  0  0  0
   17.8262  138.9609    0.6983 H   0  0  0  0  0  0  0  0  0  0  0  0
   17.2406  137.9265    1.8181 H   0  0  0  0  0  0  0  0  0  0  0  0
   14.9682  136.7237    1.3305 H   0  0  0  0  0  0  0  0  0  0  0  0
   14.2222  138.2210   -2.3427 H   0  0  0  0  0  0  0  0  0  0  0  0
   17.4506  139.7195   -1.4069 H   0  0  0  0  0  0  0  0  0  0  0  0
   16.1664  140.0175   -2.3706 H   0  0  0  0  0  0  0  0  0  0  0  0
  1  2  3  0  0  0  0
  2  3  1  0  0  0  0
  3  4  1  0  0  0  0
  4  5  1  0  0  0  0
  5  6  2  0  0  0  0
  6  7  1  0  0  0  0
  7  8  1  0  0  0  0
  8  9  1  0  0  0  0
  9 10  1  0  0  0  0
 10 11  2  0  0  0  0
 11 12  1  0  0  0  0
 12 13  2  0  0  0  0
 13 14  1  0  0  0  0
 14 15  2  0  0  0  0
 15 16  1  0  0  0  0
 16 17  2  0  0  0  0
 17 18  1  0  0  0  0
 18 19  2  0  0  0  0
 17 20  1  0  0  0  0
 20 21  1  0  0  0  0
 21 22  1  0  0  0  0
 22 23  1  0  0  0  0
 23 24  1  0  0  0  0
 24 25  1  0  0  0  0
 25 26  1  0  0  0  0
 26 27  1  0  0  0  0
 27 28  2  0  0  0  0
 28 29  1  0  0  0  0
 29 30  2  0  0  0  0
 30 31  1  0  0  0  0
 31 32  1  0  0  0  0
 23 33  1  0  0  0  0
 33 34  2  0  0  0  0
  8  3  1  0  0  0  0
 19 10  1  0  0  0  0
 33 20  1  0  0  0  0
 32  6  1  0  0  0  0
 18 13  1  0  0  0  0
 31 27  1  0  0  0  0
  3 35  1  0  0  0  0
  4 36  1  0  0  0  0
  4 37  1  0  0  0  0
  5 38  1  0  0  0  0
  7 39  1  0  0  0  0
  7 40  1  0  0  0  0
  8 41  1  0  0  0  0
 11 42  1  0  0  0  0
 12 43  1  0  0  0  0
 14 44  1  0  0  0  0
 15 45  1  0  0  0  0
 16 46  1  0  0  0  0
 19 47  1  0  0  0  0
 21 48  1  0  0  0  0
 21 49  1  0  0  0  0
 22 50  1  0  0  0  0
 22 51  1  0  0  0  0
 23 52  1  0  0  0  0
 24 53  1  0  0  0  0
 24 54  1  0  0  0  0
 25 55  1  0  0  0  0
 25 56  1  0  0  0  0
 26 57  1  0  0  0  0
 26 58  1  0  0  0  0
 28 59  1  0  0  0  0
 30 60  1  0  0  0  0
 32 61  1  0  0  0  0
 32 62  1  0  0  0  0
M  CHG  1  24   1
M  END
>  <docking-score>
-18.22

$$$$
1LD7_U66_3
foFlexX   03192112113D 1   1.00000     0.00000     0
FlexX 4.5.0 fol007
 62 67  0  0  0  0            999 V2000
   13.8740  138.1099    1.6210 N   0  0  0  0  0  0  0  0  0  0  0  0
   14.8638  137.5107    1.6428 C   0  0  0  0  0  0  0  0  0  0  0  0
   16.1225  136.7480    1.6701 C   0  0  2  0  0  0  0  0  0  0  0  0
   17.3048  137.6608    1.3145 C   0  0  0  0  0  0  0  0  0  0  0  0
   18.5939  136.8856    1.2504 C   0  0  0  0  0  0  0  0  0  0  0  0
   18.6477  135.5645    0.9666 C   0  0  0  0  0  0  0  0  0  0  0  0
   17.3752  134.7433    0.7783 C   0  0  0  0  0  0  0  0  0  0  0  0
   16.0670  135.5716    0.6844 C   0  0  2  0  0  0  0  0  0  0  0  0
   15.8782  136.0812   -0.6392 O   0  0  0  0  0  0  0  0  0  0  0  0
   15.6673  135.2930   -1.7742 C   0  0  0  0  0  0  0  0  0  0  0  0
   14.8283  134.1685   -1.7726 C   0  0  0  0  0  0  0  0  0  0  0  0
   14.6931  133.3964   -2.9326 C   0  0  0  0  0  0  0  0  0  0  0  0
   15.4698  133.6845   -4.0682 C   0  0  0  0  0  0  0  0  0  0  0  0
   15.3846  132.8845   -5.2158 C   0  0  0  0  0  0  0  0  0  0  0  0
   16.2193  133.1337   -6.3073 C   0  0  0  0  0  0  0  0  0  0  0  0
   17.1859  134.1407   -6.2425 C   0  0  0  0  0  0  0  0  0  0  0  0
   17.3040  134.9450   -5.0978 C   0  0  0  0  0  0  0  0  0  0  0  0
   16.3732  134.7747   -4.0409 C   0  0  0  0  0  0  0  0  0  0  0  0
   16.3476  135.6419   -2.9356 C   0  0  0  0  0  0  0  0  0  0  0  0
   18.4624  135.7929   -4.9430 N   0  0  0  0  0  0  0  0  0  0  0  0
   19.0009  136.7033   -5.9425 C   0  0  0  0  0  0  0  0  0  0  0  0
   20.2798  137.3042   -5.3136 C   0  0  0  0  0  0  0  0  0  0  0  0
   20.1831  137.0376   -3.7979 C   0  0  2  0  0  0  0  0  0  0  0  0
   21.4821  136.7071   -3.1754 N   0  3  0  0  0  0  0  0  0  0  0  0
   21.4264  136.8415   -1.6968 C   0  0  0  0  0  0  0  0  0  0  0  0
   22.1805  135.7141   -0.9732 C   0  0  0  0  0  0  0  0  0  0  0  0
   21.3762  134.4386   -0.9405 C   0  0  0  0  0  0  0  0  0  0  0  0
   21.4964  133.4030   -1.8430 C   0  0  0  0  0  0  0  0  0  0  0  0
   20.6115  132.4347   -1.5352 N   0  0  0  0  0  0  0  0  0  0  0  0
   19.9628  132.9032   -0.4483 C   0  0  0  0  0  0  0  0  0  0  0  0
   20.3918  134.1246   -0.0673 N   0  0  0  0  0  0  0  0  0  0  0  0
   19.9694  134.8348    1.1451 C   0  0  0  0  0  0  0  0  0  0  0  0
   19.2381  135.8989   -3.7625 C   0  0  0  0  0  0  0  0  0  0  0  0
   19.1282  135.0988   -2.7962 O   0  0  0  0  0  0  0  0  0  0  0  0
   16.2604  136.3880    2.5928 H   0  0  0  0  0  0  0  0  0  0  0  0
   17.3874  138.3732    2.0114 H   0  0  0  0  0  0  0  0  0  0  0  0
   17.1341  138.0833    0.4244 H   0  0  0  0  0  0  0  0  0  0  0  0
   19.4506  137.3705    1.4258 H   0  0  0  0  0  0  0  0  0  0  0  0
   17.2916  134.1187    1.5548 H   0  0  0  0  0  0  0  0  0  0  0  0
   17.4691  134.2153   -0.0657 H   0  0  0  0  0  0  0  0  0  0  0  0
   15.2925  134.9850    0.9210 H   0  0  0  0  0  0  0  0  0  0  0  0
   14.3274  133.9188   -0.9439 H   0  0  0  0  0  0  0  0  0  0  0  0
   14.0421  132.6376   -2.9534 H   0  0  0  0  0  0  0  0  0  0  0  0
   14.7249  132.1339   -5.2531 H   0  0  0  0  0  0  0  0  0  0  0  0
   16.1248  132.5882   -7.1401 H   0  0  0  0  0  0  0  0  0  0  0  0
   17.7990  134.2897   -7.0183 H   0  0  0  0  0  0  0  0  0  0  0  0
   16.8240  136.5197   -2.9847 H   0  0  0  0  0  0  0  0  0  0  0  0
   18.3407  137.4256   -6.1481 H   0  0  0  0  0  0  0  0  0  0  0  0
   19.2246  136.2074   -6.7816 H   0  0  0  0  0  0  0  0  0  0  0  0
   20.3233  138.2875   -5.4902 H   0  0  0  0  0  0  0  0  0  0  0  0
   21.0927  136.8613   -5.6920 H   0  0  0  0  0  0  0  0  0  0  0  0
   19.7786  137.8288   -3.3392 H   0  0  0  0  0  0  0  0  0  0  0  0
   22.1807  137.3274   -3.5321 H   0  0  0  0  0  0  0  0  0  0  0  0
   21.7233  135.7648   -3.4073 H   0  0  0  0  0  0  0  0  0  0  0  0
   20.4689  136.8227   -1.4092 H   0  0  0  0  0  0  0  0  0  0  0  0
   21.8348  137.7171   -1.4390 H   0  0  0  0  0  0  0  0  0  0  0  0
   22.3708  136.0016   -0.0345 H   0  0  0  0  0  0  0  0  0  0  0  0
   23.0423  135.5420   -1.4503 H   0  0  0  0  0  0  0  0  0  0  0  0
   22.1405  133.3750   -2.6075 H   0  0  0  0  0  0  0  0  0  0  0  0
   19.2406  132.3985    0.0247 H   0  0  0  0  0  0  0  0  0  0  0  0
   20.6735  135.5026    1.3864 H   0  0  0  0  0  0  0  0  0  0  0  0
   19.8710  134.1713    1.8867 H   0  0  0  0  0  0  0  0  0  0  0  0
  1  2  3  0  0  0  0
  2  3  1  0  0  0  0
  3  4  1  0  0  0  0
  4  5  1  0  0  0  0
  5  6  2  0  0  0  0
  6  7  1  0  0  0  0
  7  8  1  0  0  0  0
  8  9  1  0  0  0  0
  9 10  1  0  0  0  0
 10 11  2  0  0  0  0
 11 12  1  0  0  0  0
 12 13  2  0  0  0  0
 13 14  1  0  0  0  0
 14 15  2  0  0  0  0
 15 16  1  0  0  0  0
 16 17  2  0  0  0  0
 17 18  1  0  0  0  0
 18 19  2  0  0  0  0
 17 20  1  0  0  0  0
 20 21  1  0  0  0  0
 21 22  1  0  0  0  0
 22 23  1  0  0  0  0
 23 24  1  0  0  0  0
 24 25  1  0  0  0  0
 25 26  1  0  0  0  0
 26 27  1  0  0  0  0
 27 28  2  0  0  0  0
 28 29  1  0  0  0  0
 29 30  2  0  0  0  0
 30 31  1  0  0  0  0
 31 32  1  0  0  0  0
 23 33  1  0  0  0  0
 33 34  2  0  0  0  0
  8  3  1  0  0  0  0
 19 10  1  0  0  0  0
 33 20  1  0  0  0  0
 32  6  1  0  0  0  0
 18 13  1  0  0  0  0
 31 27  1  0  0  0  0
  3 35  1  0  0  0  0
  4 36  1  0  0  0  0
  4 37  1  0  0  0  0
  5 38  1  0  0  0  0
  7 39  1  0  0  0  0
  7 40  1  0  0  0  0
  8 41  1  0  0  0  0
 11 42  1  0  0  0  0
 12 43  1  0  0  0  0
 14 44  1  0  0  0  0
 15 45  1  0  0  0  0
 16 46  1  0  0  0  0
 19 47  1  0  0  0  0
 21 48  1  0  0  0  0
 21 49  1  0  0  0  0
 22 50  1  0  0  0  0
 22 51  1  0  0  0  0
 23 52  1  0  0  0  0
 24 53  1  0  0  0  0
 24 54  1  0  0  0  0
 25 55  1  0  0  0  0
 25 56  1  0  0  0  0
 26 57  1  0  0  0  0
 26 58  1  0  0  0  0
 28 59  1  0  0  0  0
 30 60  1  0  0  0  0
 32 61  1  0  0  0  0
 32 62  1  0  0  0  0
M  CHG  1  24   1
M  END
>  <docking-score>
-17.76

$$$$
1S63_778_1
foFlexX   03192112113D 1   1.00000     0.00000     0
FlexX 4.5.0 fol007
 50 53  0  0  0  0            999 V2000
   23.6320  135.0583   -3.6932 N   0  0  0  0  0  0  0  0  0  0  0  0
   22.7968  134.5679   -3.0602 C   0  0  0  0  0  0  0  0  0  0  0  0
   21.7590  133.9554   -2.2731 C   0  0  0  0  0  0  0  0  0  0  0  0
   21.9585  133.7670   -0.9091 C   0  0  0  0  0  0  0  0  0  0  0  0
   20.9643  133.1771   -0.1360 C   0  0  0  0  0  0  0  0  0  0  0  0
   19.7772  132.7813   -0.7438 C   0  0  0  0  0  0  0  0  0  0  0  0
   18.6830  132.1339    0.0892 C   0  0  0  0  0  0  0  0  0  0  0  0
   18.7126  132.6264    1.4696 N   0  0  0  0  0  0  0  0  0  0  0  0
   18.9007  131.8558    2.5797 C   0  0  0  0  0  0  0  0  0  0  0  0
   18.8665  132.6480    3.6286 N   0  0  0  0  0  0  0  0  0  0  0  0
   18.6568  133.9305    3.2070 C   0  0  0  0  0  0  0  0  0  0  0  0
   18.5581  133.9255    1.8463 C   0  0  0  0  0  0  0  0  0  0  0  0
   18.3295  135.1263    0.9431 C   0  0  0  0  0  0  0  0  0  0  0  0
   17.0495  135.8157    1.2423 N   0  3  2  0  0  0  0  0  0  0  0  0
   16.5275  136.4847    0.0412 C   0  0  0  0  0  0  0  0  0  0  0  0
   15.1355  137.0204    0.3527 C   0  0  0  0  0  0  0  0  0  0  0  0
   15.1147  137.8297    1.5805 N   0  0  0  0  0  0  0  0  0  0  0  0
   14.0392  138.6980    1.7892 C   0  0  0  0  0  0  0  0  0  0  0  0
   12.7492  138.1826    1.8652 C   0  0  0  0  0  0  0  0  0  0  0  0
   11.6829  139.0510    2.0745 C   0  0  0  0  0  0  0  0  0  0  0  0
   11.8936  140.4192    2.2075 C   0  0  0  0  0  0  0  0  0  0  0  0
   13.1918  140.9133    2.1287 C   0  0  0  0  0  0  0  0  0  0  0  0
   13.4826  142.6611    2.2967 Cl  0  0  0  0  0  0  0  0  0  0  0  0
   14.2725  140.0629    1.9198 C   0  0  0  0  0  0  0  0  0  0  0  0
   16.1450  137.7457    2.5281 C   0  0  0  0  0  0  0  0  0  0  0  0
   16.1180  138.3775    3.5697 O   0  0  0  0  0  0  0  0  0  0  0  0
   17.3388  136.8380    2.2560 C   0  0  0  0  0  0  0  0  0  0  0  0
   19.5747  132.9675   -2.1073 C   0  0  0  0  0  0  0  0  0  0  0  0
   20.5709  133.5584   -2.8781 C   0  0  0  0  0  0  0  0  0  0  0  0
   22.8167  134.0558   -0.4847 H   0  0  0  0  0  0  0  0  0  0  0  0
   21.1010  133.0391    0.8450 H   0  0  0  0  0  0  0  0  0  0  0  0
   18.8177  131.1430    0.0926 H   0  0  0  0  0  0  0  0  0  0  0  0
   17.7940  132.3480   -0.3155 H   0  0  0  0  0  0  0  0  0  0  0  0
   19.0397  130.8656    2.5932 H   0  0  0  0  0  0  0  0  0  0  0  0
   18.5875  134.7359    3.7957 H   0  0  0  0  0  0  0  0  0  0  0  0
   18.3141  134.8163   -0.0075 H   0  0  0  0  0  0  0  0  0  0  0  0
   19.0814  135.7732    1.0706 H   0  0  0  0  0  0  0  0  0  0  0  0
   16.3788  135.1619    1.5927 H   0  0  0  0  0  0  0  0  0  0  0  0
   16.4763  135.8309   -0.7137 H   0  0  0  0  0  0  0  0  0  0  0  0
   17.1308  137.2406   -0.2130 H   0  0  0  0  0  0  0  0  0  0  0  0
   14.8299  137.5874   -0.4122 H   0  0  0  0  0  0  0  0  0  0  0  0
   14.5108  136.2478    0.4653 H   0  0  0  0  0  0  0  0  0  0  0  0
   12.5905  137.1998    1.7704 H   0  0  0  0  0  0  0  0  0  0  0  0
   10.7532  138.6870    2.1302 H   0  0  0  0  0  0  0  0  0  0  0  0
   11.1233  141.0389    2.3575 H   0  0  0  0  0  0  0  0  0  0  0  0
   15.2023  140.4270    1.8644 H   0  0  0  0  0  0  0  0  0  0  0  0
   18.1021  137.3995    1.9363 H   0  0  0  0  0  0  0  0  0  0  0  0
   17.5949  136.3813    3.1080 H   0  0  0  0  0  0  0  0  0  0  0  0
   18.7167  132.6779   -2.5317 H   0  0  0  0  0  0  0  0  0  0  0  0
   20.4339  133.6966   -3.8590 H   0  0  0  0  0  0  0  0  0  0  0  0
  1  2  3  0  0  0  0
  2  3  1  0  0  0  0
  3  4  2  0  0  0  0
  4  5  1  0  0  0  0
  5  6  2  0  0  0  0
  6  7  1  0  0  0  0
  7  8  1  0  0  0  0
  8  9  1  0  0  0  0
  9 10  2  0  0  0  0
 10 11  1  0  0  0  0
 11 12  2  0  0  0  0
 12 13  1  0  0  0  0
 13 14  1  0  0  0  0
 14 15  1  0  0  0  0
 15 16  1  0  0  0  0
 16 17  1  0  0  0  0
 17 18  1  0  0  0  0
 18 19  2  0  0  0  0
 19 20  1  0  0  0  0
 20 21  2  0  0  0  0
 21 22  1  0  0  0  0
 22 23  1  0  0  0  0
 22 24  2  0  0  0  0
 17 25  1  0  0  0  0
 25 26  2  0  0  0  0
 25 27  1  0  0  0  0
  6 28  1  0  0  0  0
 28 29  2  0  0  0  0
 29  3  1  0  0  0  0
 12  8  1  0  0  0  0
 27 14  1  0  0  0  0
 24 18  1  0  0  0  0
  4 30  1  0  0  0  0
  5 31  1  0  0  0  0
  7 32  1  0  0  0  0
  7 33  1  0  0  0  0
  9 34  1  0  0  0  0
 11 35  1  0  0  0  0
 13 36  1  0  0  0  0
 13 37  1  0  0  0  0
 14 38  1  0  0  0  0
 15 39  1  0  0  0  0
 15 40  1  0  0  0  0
 16 41  1  0  0  0  0
 16 42  1  0  0  0  0
 19 43  1  0  0  0  0
 20 44  1  0  0  0  0
 21 45  1  0  0  0  0
 24 46  1  0  0  0  0
 27 47  1  0  0  0  0
 27 48  1  0  0  0  0
 28 49  1  0  0  0  0
 29 50  1  0  0  0  0
M  CHG  1  14   1
M  END
>  <docking-score>
-21.91

$$$$
1S63_778_2
foFlexX   03192112113D 1   1.00000     0.00000     0
FlexX 4.5.0 fol007
 50 53  0  0  0  0            999 V2000
   13.3199  139.4091    1.3847 N   0  0  0  0  0  0  0  0  0  0  0  0
   14.1251  138.5938    1.2239 C   0  0  0  0  0  0  0  0  0  0  0  0
   15.1847  137.5245    1.0142 C   0  0  0  0  0  0  0  0  0  0  0  0
   15.9558  137.5462   -0.1437 C   0  0  0  0  0  0  0  0  0  0  0  0
   16.9296  136.5746   -0.3489 C   0  0  0  0  0  0  0  0  0  0  0  0
   17.1181  135.5888    0.6143 C   0  0  0  0  0  0  0  0  0  0  0  0
   18.1673  134.5307    0.4041 C   0  0  0  0  0  0  0  0  0  0  0  0
   18.7099  134.0640    1.6885 N   0  0  0  0  0  0  0  0  0  0  0  0
   17.9856  133.4813    2.6873 C   0  0  0  0  0  0  0  0  0  0  0  0
   18.8120  133.2003    3.6707 N   0  0  0  0  0  0  0  0  0  0  0  0
   20.0706  133.5974    3.3174 C   0  0  0  0  0  0  0  0  0  0  0  0
   20.0147  134.1437    2.0684 C   0  0  0  0  0  0  0  0  0  0  0  0
   21.1667  134.7115    1.2746 C   0  0  0  0  0  0  0  0  0  0  0  0
   21.8225  133.6909    0.4416 N   0  3  2  0  0  0  0  0  0  0  0  0
   21.8859  134.1976   -0.9486 C   0  0  0  0  0  0  0  0  0  0  0  0
   21.1589  133.3887   -2.0173 C   0  0  0  0  0  0  0  0  0  0  0  0
   19.9280  132.7339   -1.5418 N   0  0  0  0  0  0  0  0  0  0  0  0
   18.8127  132.6338   -2.3826 C   0  0  0  0  0  0  0  0  0  0  0  0
   18.9215  131.9389   -3.5830 C   0  0  0  0  0  0  0  0  0  0  0  0
   17.8100  131.8413   -4.4136 C   0  0  0  0  0  0  0  0  0  0  0  0
   16.6004  132.4278   -4.0573 C   0  0  0  0  0  0  0  0  0  0  0  0
   16.5135  133.1177   -2.8523 C   0  0  0  0  0  0  0  0  0  0  0  0
   14.9743  133.8749   -2.3779 Cl  0  0  0  0  0  0  0  0  0  0  0  0
   17.6124  133.2276   -2.0067 C   0  0  0  0  0  0  0  0  0  0  0  0
   19.9002  132.2284   -0.2339 C   0  0  0  0  0  0  0  0  0  0  0  0
   18.9035  131.6721    0.2024 O   0  0  0  0  0  0  0  0  0  0  0  0
   21.1448  132.3975    0.6365 C   0  0  0  0  0  0  0  0  0  0  0  0
   16.3486  135.5638    1.7728 C   0  0  0  0  0  0  0  0  0  0  0  0
   15.3755  136.5373    1.9756 C   0  0  0  0  0  0  0  0  0  0  0  0
   15.8098  138.2603   -0.8284 H   0  0  0  0  0  0  0  0  0  0  0  0
   17.4875  136.5846   -1.1787 H   0  0  0  0  0  0  0  0  0  0  0  0
   18.9106  134.9119   -0.1457 H   0  0  0  0  0  0  0  0  0  0  0  0
   17.7586  133.7564   -0.0790 H   0  0  0  0  0  0  0  0  0  0  0  0
   17.0023  133.3003    2.6737 H   0  0  0  0  0  0  0  0  0  0  0  0
   20.8929  133.5035    3.8786 H   0  0  0  0  0  0  0  0  0  0  0  0
   21.8398  135.0905    1.9097 H   0  0  0  0  0  0  0  0  0  0  0  0
   20.8217  135.4388    0.6813 H   0  0  0  0  0  0  0  0  0  0  0  0
   22.7620  133.5918    0.7697 H   0  0  0  0  0  0  0  0  0  0  0  0
   22.8504  134.2424   -1.2091 H   0  0  0  0  0  0  0  0  0  0  0  0
   21.4967  135.1187   -0.9514 H   0  0  0  0  0  0  0  0  0  0  0  0
   20.9175  134.0045   -2.7673 H   0  0  0  0  0  0  0  0  0  0  0  0
   21.7810  132.6817   -2.3536 H   0  0  0  0  0  0  0  0  0  0  0  0
   19.7883  131.5148   -3.8454 H   0  0  0  0  0  0  0  0  0  0  0  0
   17.8816  131.3432   -5.2777 H   0  0  0  0  0  0  0  0  0  0  0  0
   15.8046  132.3547   -4.6585 H   0  0  0  0  0  0  0  0  0  0  0  0
   17.5407  133.7256   -1.1425 H   0  0  0  0  0  0  0  0  0  0  0  0
   20.8732  132.3231    1.5961 H   0  0  0  0  0  0  0  0  0  0  0  0
   21.7888  131.6653    0.4147 H   0  0  0  0  0  0  0  0  0  0  0  0
   16.4942  134.8491    2.4570 H   0  0  0  0  0  0  0  0  0  0  0  0
   14.8178  136.5275    2.8056 H   0  0  0  0  0  0  0  0  0  0  0  0
  1  2  3  0  0  0  0
  2  3  1  0  0  0  0
  3  4  2  0  0  0  0
  4  5  1  0  0  0  0
  5  6  2  0  0  0  0
  6  7  1  0  0  0  0
  7  8  1  0  0  0  0
  8  9  1  0  0  0  0
  9 10  2  0  0  0  0
 10 11  1  0  0  0  0
 11 12  2  0  0  0  0
 12 13  1  0  0  0  0
 13 14  1  0  0  0  0
 14 15  1  0  0  0  0
 15 16  1  0  0  0  0
 16 17  1  0  0  0  0
 17 18  1  0  0  0  0
 18 19  2  0  0  0  0
 19 20  1  0  0  0  0
 20 21  2  0  0  0  0
 21 22  1  0  0  0  0
 22 23  1  0  0  0  0
 22 24  2  0  0  0  0
 17 25  1  0  0  0  0
 25 26  2  0  0  0  0
 25 27  1  0  0  0  0
  6 28  1  0  0  0  0
 28 29  2  0  0  0  0
 29  3  1  0  0  0  0
 12  8  1  0  0  0  0
 27 14  1  0  0  0  0
 24 18  1  0  0  0  0
  4 30  1  0  0  0  0
  5 31  1  0  0  0  0
  7 32  1  0  0  0  0
  7 33  1  0  0  0  0
  9 34  1  0  0  0  0
 11 35  1  0  0  0  0
 13 36  1  0  0  0  0
 13 37  1  0  0  0  0
 14 38  1  0  0  0  0
 15 39  1  0  0  0  0
 15 40  1  0  0  0  0
 16 41  1  0  0  0  0
 16 42  1  0  0  0  0
 19 43  1  0  0  0  0
 20 44  1  0  0  0  0
 21 45  1  0  0  0  0
 24 46  1  0  0  0  0
 27 47  1  0  0  0  0
 27 48  1  0  0  0  0
 28 49  1  0  0  0  0
 29 50  1  0  0  0  0
M  CHG  1  14   1
M  END
>  <docking-score>
-20.07

$$$$
1S63_778_3
foFlexX   03192112113D 1   1.00000     0.00000     0
FlexX 4.5.0 fol007
 50 53  0  0  0  0            999 V2000
   15.7968  141.0459    1.3085 N   0  0  0  0  0  0  0  0  0  0  0  0
   16.1921  139.9657    1.1821 C   0  0  0  0  0  0  0  0  0  0  0  0
   16.7133  138.5474    1.0182 C   0  0  0  0  0  0  0  0  0  0  0  0
   17.7055  138.2899    0.0774 C   0  0  0  0  0  0  0  0  0  0  0  0
   18.1926  136.9971   -0.0831 C   0  0  0  0  0  0  0  0  0  0  0  0
   17.6755  135.9743    0.7053 C   0  0  0  0  0  0  0  0  0  0  0  0
   18.1926  134.5706    0.5406 C   0  0  0  0  0  0  0  0  0  0  0  0
   18.7790  134.0745    1.7944 N   0  0  0  0  0  0  0  0  0  0  0  0
   18.1029  133.4056    2.7726 C   0  0  0  0  0  0  0  0  0  0  0  0
   18.9579  133.1249    3.7313 N   0  0  0  0  0  0  0  0  0  0  0  0
   20.1874  133.6079    3.3823 C   0  0  0  0  0  0  0  0  0  0  0  0
   20.0829  134.2090    2.1619 C   0  0  0  0  0  0  0  0  0  0  0  0
   21.1899  134.8773    1.3825 C   0  0  0  0  0  0  0  0  0  0  0  0
   21.8888  133.9356    0.4933 N   0  3  2  0  0  0  0  0  0  0  0  0
   21.9035  134.5104   -0.8715 C   0  0  0  0  0  0  0  0  0  0  0  0
   21.2066  133.7138   -1.9690 C   0  0  0  0  0  0  0  0  0  0  0  0
   20.0209  132.9694   -1.5108 N   0  0  0  0  0  0  0  0  0  0  0  0
   18.9005  132.8471   -2.3419 C   0  0  0  0  0  0  0  0  0  0  0  0
   19.0299  132.2172   -3.5755 C   0  0  0  0  0  0  0  0  0  0  0  0
   17.9132  132.0971   -4.3964 C   0  0  0  0  0  0  0  0  0  0  0  0
   16.6785  132.5975   -3.9976 C   0  0  0  0  0  0  0  0  0  0  0  0
   16.5714  133.2235   -2.7598 C   0  0  0  0  0  0  0  0  0  0  0  0
   15.0000  133.8702   -2.2309 Cl  0  0  0  0  0  0  0  0  0  0  0  0
   17.6750  133.3544   -1.9233 C   0  0  0  0  0  0  0  0  0  0  0  0
   20.0404  132.4017   -0.2285 C   0  0  0  0  0  0  0  0  0  0  0  0
   19.0825  131.7704    0.1925 O   0  0  0  0  0  0  0  0  0  0  0  0
   21.2865  132.5985    0.6339 C   0  0  0  0  0  0  0  0  0  0  0  0
   16.6831  136.2281    1.6463 C   0  0  0  0  0  0  0  0  0  0  0  0
   16.1981  137.5225    1.8051 C   0  0  0  0  0  0  0  0  0  0  0  0
   18.0684  139.0342   -0.4832 H   0  0  0  0  0  0  0  0  0  0  0  0
   18.9060  136.8051   -0.7571 H   0  0  0  0  0  0  0  0  0  0  0  0
   18.8923  134.5616   -0.1737 H   0  0  0  0  0  0  0  0  0  0  0  0
   17.4366  133.9728    0.2742 H   0  0  0  0  0  0  0  0  0  0  0  0
   17.1309  133.1707    2.7623 H   0  0  0  0  0  0  0  0  0  0  0  0
   21.0218  133.5337    3.9284 H   0  0  0  0  0  0  0  0  0  0  0  0
   21.8504  135.2627    2.0269 H   0  0  0  0  0  0  0  0  0  0  0  0
   20.7966  135.6115    0.8292 H   0  0  0  0  0  0  0  0  0  0  0  0
   22.8370  133.8736    0.8049 H   0  0  0  0  0  0  0  0  0  0  0  0
   22.8601  134.6213   -1.1411 H   0  0  0  0  0  0  0  0  0  0  0  0
   21.4640  135.4074   -0.8252 H   0  0  0  0  0  0  0  0  0  0  0  0
   20.9205  134.3501   -2.6855 H   0  0  0  0  0  0  0  0  0  0  0  0
   21.8618  133.0594   -2.3466 H   0  0  0  0  0  0  0  0  0  0  0  0
   19.9147  131.8551   -3.8686 H   0  0  0  0  0  0  0  0  0  0  0  0
   17.9995  131.6453   -5.2844 H   0  0  0  0  0  0  0  0  0  0  0  0
   15.8792  132.5087   -4.5920 H   0  0  0  0  0  0  0  0  0  0  0  0
   17.5886  133.8060   -1.0352 H   0  0  0  0  0  0  0  0  0  0  0  0
   21.0336  132.4637    1.5920 H   0  0  0  0  0  0  0  0  0  0  0  0
   21.9666  131.9148    0.3693 H   0  0  0  0  0  0  0  0  0  0  0  0
   16.3197  135.4835    2.2063 H   0  0  0  0  0  0  0  0  0  0  0  0
   15.4850  137.7144    2.4794 H   0  0  0  0  0  0  0  0  0  0  0  0
  1  2  3  0  0  0  0
  2  3  1  0  0  0  0
  3  4  2  0  0  0  0
  4  5  1  0  0  0  0
  5  6  2  0  0  0  0
  6  7  1  0  0  0  0
  7  8  1  0  0  0  0
  8  9  1  0  0  0  0
  9 10  2  0  0  0  0
 10 11  1  0  0  0  0
 11 12  2  0  0  0  0
 12 13  1  0  0  0  0
 13 14  1  0  0  0  0
 14 15  1  0  0  0  0
 15 16  1  0  0  0  0
 16 17  1  0  0  0  0
 17 18  1  0  0  0  0
 18 19  2  0  0  0  0
 19 20  1  0  0  0  0
 20 21  2  0  0  0  0
 21 22  1  0  0  0  0
 22 23  1  0  0  0  0
 22 24  2  0  0  0  0
 17 25  1  0  0  0  0
 25 26  2  0  0  0  0
 25 27  1  0  0  0  0
  6 28  1  0  0  0  0
 28 29  2  0  0  0  0
 29  3  1  0  0  0  0
 12  8  1  0  0  0  0
 27 14  1  0  0  0  0
 24 18  1  0  0  0  0
  4 30  1  0  0  0  0
  5 31  1  0  0  0  0
  7 32  1  0  0  0  0
  7 33  1  0  0  0  0
  9 34  1  0  0  0  0
 11 35  1  0  0  0  0
 13 36  1  0  0  0  0
 13 37  1  0  0  0  0
 14 38  1  0  0  0  0
 15 39  1  0  0  0  0
 15 40  1  0  0  0  0
 16 41  1  0  0  0  0
 16 42  1  0  0  0  0
 19 43  1  0  0  0  0
 20 44  1  0  0  0  0
 21 45  1  0  0  0  0
 24 46  1  0  0  0  0
 27 47  1  0  0  0  0
 27 48  1  0  0  0  0
 28 49  1  0  0  0  0
 29 50  1  0  0  0  0
M  CHG  1  14   1
M  END
>  <docking-score>
-19.47

$$$$
3E37_ED5_1
foFlexX   03192112113D 1   1.00000     0.00000     0
FlexX 4.5.0 fol007
 85 88  0  0  0  0            999 V2000
   15.4654  140.0052    1.3797 C   0  0  0  0  0  0  0  0  0  0  0  0
   16.4475  139.5259    0.3231 C   0  0  0  0  0  0  0  0  0  0  0  0
   17.0892  140.4789   -0.4612 C   0  0  0  0  0  0  0  0  0  0  0  0
   17.9921  140.0659   -1.4349 C   0  0  0  0  0  0  0  0  0  0  0  0
   18.2462  138.7104   -1.6171 C   0  0  0  0  0  0  0  0  0  0  0  0
   17.6053  137.7560   -0.8338 C   0  0  0  0  0  0  0  0  0  0  0  0
   16.7016  138.1696    0.1401 C   0  0  0  0  0  0  0  0  0  0  0  0
   15.8931  136.9373    1.1305 S   0  0  0  0  0  0  0  0  0  0  0  0
   14.5107  136.7314    0.5791 O   0  0  0  0  0  0  0  0  0  0  0  0
   15.7609  137.4325    2.5451 O   0  0  0  0  0  0  0  0  0  0  0  0
   16.7704  135.4157    1.1040 N   0  0  0  0  0  0  0  0  0  0  0  0
   17.3105  135.0938   -0.2339 C   0  0  0  0  0  0  0  0  0  0  0  0
   16.3517  134.2766   -1.1205 C   0  0  0  0  0  0  0  0  0  0  0  0
   17.1172  133.4243   -2.0375 N   0  0  0  0  0  0  0  0  0  0  0  0
   16.5873  132.1387   -2.5056 C   0  0  0  0  0  0  0  0  0  0  0  0
   16.1756  132.2408   -3.9662 C   0  0  0  0  0  0  0  0  0  0  0  0
   16.9739  131.9789   -5.0408 C   0  0  0  0  0  0  0  0  0  0  0  0
   16.2192  132.1887   -6.1567 N   0  0  0  0  0  0  0  0  0  0  0  0
   15.0136  132.5627   -5.7849 C   0  0  0  0  0  0  0  0  0  0  0  0
   14.9482  132.5997   -4.4268 N   0  0  0  0  0  0  0  0  0  0  0  0
   13.7802  132.9658   -3.6119 C   0  0  0  0  0  0  0  0  0  0  0  0
   18.4702  133.7818   -2.3541 C   0  0  0  0  0  0  0  0  0  0  0  0
   18.7167  134.9339   -3.0940 C   0  0  0  0  0  0  0  0  0  0  0  0
   20.0233  135.2919   -3.4085 C   0  0  0  0  0  0  0  0  0  0  0  0
   21.0705  134.4868   -2.9743 C   0  0  0  0  0  0  0  0  0  0  0  0
   22.5032  134.8674   -3.3099 C   0  0  0  0  0  0  0  0  0  0  0  0
   23.5940  135.1567   -3.5665 N   0  0  0  0  0  0  0  0  0  0  0  0
   20.8292  133.3340   -2.2338 C   0  0  0  0  0  0  0  0  0  0  0  0
   19.5209  132.9790   -1.9216 C   0  0  0  0  0  0  0  0  0  0  0  0
   17.7941  135.3315    2.1673 C   0  0  0  0  0  0  0  0  0  0  0  0
   19.1262  134.7774    1.6227 C   0  0  0  0  0  0  0  0  0  0  0  0
   20.3166  135.3324    2.3901 C   0  0  0  0  0  0  0  0  0  0  0  0
   20.6357  134.4993    3.6204 C   0  0  0  0  0  0  0  0  0  0  0  0
   21.0949  133.1783    3.1653 N   0  0  0  0  0  0  0  0  0  0  0  0
   22.0215  132.4215    3.9061 C   0  0  0  0  0  0  0  0  0  0  0  0
   22.8104  131.6337    3.3168 O   0  0  0  0  0  0  0  0  0  0  0  0
   22.0572  132.5542    5.3042 O   0  0  0  0  0  0  0  0  0  0  0  0
   22.9349  131.8617    6.2043 C   0  0  0  0  0  0  0  0  0  0  0  0
   24.4069  132.1780    5.8782 C   0  0  0  0  0  0  0  0  0  0  0  0
   22.6797  130.3433    6.1504 C   0  0  0  0  0  0  0  0  0  0  0  0
   22.6212  132.3671    7.6208 C   0  0  0  0  0  0  0  0  0  0  0  0
   20.5201  132.7009    1.8984 C   0  0  0  0  0  0  0  0  0  0  0  0
   19.1107  133.2649    1.7961 C   0  0  0  0  0  0  0  0  0  0  0  0
   15.0835  139.2168    1.8620 H   0  0  0  0  0  0  0  0  0  0  0  0
   15.9395  140.5971    2.0315 H   0  0  0  0  0  0  0  0  0  0  0  0
   14.7269  140.5170    0.9407 H   0  0  0  0  0  0  0  0  0  0  0  0
   16.9029  141.4521   -0.3262 H   0  0  0  0  0  0  0  0  0  0  0  0
   18.4586  140.7431   -2.0039 H   0  0  0  0  0  0  0  0  0  0  0  0
   18.8966  138.4190   -2.3186 H   0  0  0  0  0  0  0  0  0  0  0  0
   17.7920  136.7830   -0.9693 H   0  0  0  0  0  0  0  0  0  0  0  0
   18.1525  134.5677   -0.1142 H   0  0  0  0  0  0  0  0  0  0  0  0
   17.5177  135.9520   -0.7035 H   0  0  0  0  0  0  0  0  0  0  0  0
   15.7779  134.9011   -1.6504 H   0  0  0  0  0  0  0  0  0  0  0  0
   15.7730  133.7029   -0.5408 H   0  0  0  0  0  0  0  0  0  0  0  0
   15.7909  131.8894   -1.9547 H   0  0  0  0  0  0  0  0  0  0  0  0
   17.2923  131.4361   -2.4095 H   0  0  0  0  0  0  0  0  0  0  0  0
   17.9304  131.6883   -5.0150 H   0  0  0  0  0  0  0  0  0  0  0  0
   14.2615  132.7853   -6.4052 H   0  0  0  0  0  0  0  0  0  0  0  0
   14.0202  132.9129   -2.6426 H   0  0  0  0  0  0  0  0  0  0  0  0
   13.4974  133.8987   -3.8348 H   0  0  0  0  0  0  0  0  0  0  0  0
   13.0286  132.3348   -3.8041 H   0  0  0  0  0  0  0  0  0  0  0  0
   17.9545  135.5045   -3.3997 H   0  0  0  0  0  0  0  0  0  0  0  0
   20.2074  136.1183   -3.9406 H   0  0  0  0  0  0  0  0  0  0  0  0
   21.5917  132.7640   -1.9277 H   0  0  0  0  0  0  0  0  0  0  0  0
   19.3369  132.1524   -1.3899 H   0  0  0  0  0  0  0  0  0  0  0  0
   17.4620  134.7272    2.8916 H   0  0  0  0  0  0  0  0  0  0  0  0
   17.9505  136.2456    2.5415 H   0  0  0  0  0  0  0  0  0  0  0  0
   19.2145  135.0047    0.6529 H   0  0  0  0  0  0  0  0  0  0  0  0
   20.1085  136.2673    2.6778 H   0  0  0  0  0  0  0  0  0  0  0  0
   21.1150  135.3389    1.7880 H   0  0  0  0  0  0  0  0  0  0  0  0
   21.3550  134.9436    4.1544 H   0  0  0  0  0  0  0  0  0  0  0  0
   19.8161  134.3983    4.1843 H   0  0  0  0  0  0  0  0  0  0  0  0
   24.5638  133.1618    5.9658 H   0  0  0  0  0  0  0  0  0  0  0  0
   25.0022  131.6875    6.5146 H   0  0  0  0  0  0  0  0  0  0  0  0
   24.6103  131.8902    4.9423 H   0  0  0  0  0  0  0  0  0  0  0  0
   22.8411  130.0109    5.2211 H   0  0  0  0  0  0  0  0  0  0  0  0
   23.2993  129.8785    6.7829 H   0  0  0  0  0  0  0  0  0  0  0  0
   21.7331  130.1548    6.4121 H   0  0  0  0  0  0  0  0  0  0  0  0
   21.6654  132.1714    7.8405 H   0  0  0  0  0  0  0  0  0  0  0  0
   23.2158  131.9050    8.2788 H   0  0  0  0  0  0  0  0  0  0  0  0
   22.7781  133.3537    7.6651 H   0  0  0  0  0  0  0  0  0  0  0  0
   20.4894  131.7014    1.8923 H   0  0  0  0  0  0  0  0  0  0  0  0
   21.0732  133.0222    1.1297 H   0  0  0  0  0  0  0  0  0  0  0  0
   18.6520  132.8522    1.0092 H   0  0  0  0  0  0  0  0  0  0  0  0
   18.6089  133.0386    2.6310 H   0  0  0  0  0  0  0  0  0  0  0  0
  1  2  1  0  0  0  0
  2  3  2  0  0  0  0
  3  4  1  0  0  0  0
  4  5  2  0  0  0  0
  5  6  1  0  0  0  0
  6  7  2  0  0  0  0
  7  8  1  0  0  0  0
  8  9  2  0  0  0  0
  8 10  2  0  0  0  0
  8 11  1  0  0  0  0
 11 12  1  0  0  0  0
 12 13  1  0  0  0  0
 13 14  1  0  0  0  0
 14 15  1  0  0  0  0
 15 16  1  0  0  0  0
 16 17  2  0  0  0  0
 17 18  1  0  0  0  0
 18 19  2  0  0  0  0
 19 20  1  0  0  0  0
 20 21  1  0  0  0  0
 14 22  1  0  0  0  0
 22 23  2  0  0  0  0
 23 24  1  0  0  0  0
 24 25  2  0  0  0  0
 25 26  1  0  0  0  0
 26 27  3  0  0  0  0
 25 28  1  0  0  0  0
 28 29  2  0  0  0  0
 11 30  1  0  0  0  0
 30 31  1  0  0  0  0
 31 32  1  0  0  0  0
 32 33  1  0  0  0  0
 33 34  1  0  0  0  0
 34 35  1  0  0  0  0
 35 36  2  0  0  0  0
 35 37  1  0  0  0  0
 37 38  1  0  0  0  0
 38 39  1  0  0  0  0
 38 40  1  0  0  0  0
 38 41  1  0  0  0  0
 34 42  1  0  0  0  0
 42 43  1  0  0  0  0
  7  2  1  0  0  0  0
 20 16  1  0  0  0  0
 29 22  1  0  0  0  0
 43 31  1  0  0  0  0
  1 44  1  0  0  0  0
  1 45  1  0  0  0  0
  1 46  1  0  0  0  0
  3 47  1  0  0  0  0
  4 48  1  0  0  0  0
  5 49  1  0  0  0  0
  6 50  1  0  0  0  0
 12 51  1  0  0  0  0
 12 52  1  0  0  0  0
 13 53  1  0  0  0  0
 13 54  1  0  0  0  0
 15 55  1  0  0  0  0
 15 56  1  0  0  0  0
 17 57  1  0  0  0  0
 19 58  1  0  0  0  0
 21 59  1  0  0  0  0
 21 60  1  0  0  0  0
 21 61  1  0  0  0  0
 23 62  1  0  0  0  0
 24 63  1  0  0  0  0
 28 64  1  0  0  0  0
 29 65  1  0  0  0  0
 30 66  1  0  0  0  0
 30 67  1  0  0  0  0
 31 68  1  0  0  0  0
 32 69  1  0  0  0  0
 32 70  1  0  0  0  0
 33 71  1  0  0  0  0
 33 72  1  0  0  0  0
 39 73  1  0  0  0  0
 39 74  1  0  0  0  0
 39 75  1  0  0  0  0
 40 76  1  0  0  0  0
 40 77  1  0  0  0  0
 40 78  1  0  0  0  0
 41 79  1  0  0  0  0
 41 80  1  0  0  0  0
 41 81  1  0  0  0  0
 42 82  1  0  0  0  0
 42 83  1  0  0  0  0
 43 84  1  0  0  0  0
 43 85  1  0  0  0  0
M  END
>  <docking-score>
-6.61

$$$$
3E37_ED5_2
foFlexX   03192112113D 1   1.00000     0.00000     0
FlexX 4.5.0 fol007
 85 88  0  0  0  0            999 V2000
   14.4609  135.1054   -4.5561 C   0  0  0  0  0  0  0  0  0  0  0  0
   15.4698  136.2423   -4.5632 C   0  0  0  0  0  0  0  0  0  0  0  0
   16.4717  136.2288   -5.5283 C   0  0  0  0  0  0  0  0  0  0  0  0
   17.4069  137.2576   -5.5557 C   0  0  0  0  0  0  0  0  0  0  0  0
   17.3351  138.2874   -4.6234 C   0  0  0  0  0  0  0  0  0  0  0  0
   16.3341  138.3025   -3.6575 C   0  0  0  0  0  0  0  0  0  0  0  0
   15.3986  137.2728   -3.6301 C   0  0  0  0  0  0  0  0  0  0  0  0
   14.1280  137.3087   -2.3902 S   0  0  0  0  0  0  0  0  0  0  0  0
   12.8049  137.1128   -3.0746 O   0  0  0  0  0  0  0  0  0  0  0  0
   14.1114  138.6569   -1.7223 O   0  0  0  0  0  0  0  0  0  0  0  0
   14.3643  136.0455   -1.1924 N   0  0  0  0  0  0  0  0  0  0  0  0
   14.8189  134.7725   -1.7906 C   0  0  0  0  0  0  0  0  0  0  0  0
   15.9758  134.0968   -1.0301 C   0  0  0  0  0  0  0  0  0  0  0  0
   16.8095  133.3282   -1.9615 N   0  0  0  0  0  0  0  0  0  0  0  0
   16.4086  131.9939   -2.4212 C   0  0  0  0  0  0  0  0  0  0  0  0
   15.9623  132.0507   -3.8740 C   0  0  0  0  0  0  0  0  0  0  0  0
   16.7640  131.8726   -4.9630 C   0  0  0  0  0  0  0  0  0  0  0  0
   15.9714  132.0013   -6.0649 N   0  0  0  0  0  0  0  0  0  0  0  0
   14.7403  132.2474   -5.6711 C   0  0  0  0  0  0  0  0  0  0  0  0
   14.6959  132.2788   -4.3120 N   0  0  0  0  0  0  0  0  0  0  0  0
   13.5109  132.5216   -3.4758 C   0  0  0  0  0  0  0  0  0  0  0  0
   18.1118  133.8250   -2.3023 C   0  0  0  0  0  0  0  0  0  0  0  0
   18.2230  134.9957   -3.0455 C   0  0  0  0  0  0  0  0  0  0  0  0
   19.4791  135.4881   -3.3833 C   0  0  0  0  0  0  0  0  0  0  0  0
   20.6125  134.7974   -2.9687 C   0  0  0  0  0  0  0  0  0  0  0  0
   21.9912  135.3255   -3.3299 C   0  0  0  0  0  0  0  0  0  0  0  0
   23.0409  135.7269   -3.6058 N   0  0  0  0  0  0  0  0  0  0  0  0
   20.5065  133.6265   -2.2249 C   0  0  0  0  0  0  0  0  0  0  0  0
   19.2483  133.1370   -1.8895 C   0  0  0  0  0  0  0  0  0  0  0  0
   15.2166  136.4827   -0.0663 C   0  0  0  0  0  0  0  0  0  0  0  0
   14.3751  137.1010    1.0685 C   0  0  0  0  0  0  0  0  0  0  0  0
   13.1192  137.7634    0.5200 C   0  0  0  0  0  0  0  0  0  0  0  0
   12.4455  138.4092    1.7186 C   0  0  0  0  0  0  0  0  0  0  0  0
   13.2980  139.5158    2.1773 N   0  0  0  0  0  0  0  0  0  0  0  0
   12.7599  140.5768    2.9159 C   0  0  0  0  0  0  0  0  0  0  0  0
   11.5306  140.5933    3.1965 O   0  0  0  0  0  0  0  0  0  0  0  0
   13.6029  141.6178    3.3392 O   0  0  0  0  0  0  0  0  0  0  0  0
   13.2166  142.7720    4.0998 C   0  0  0  0  0  0  0  0  0  0  0  0
   12.2001  142.3875    5.1918 C   0  0  0  0  0  0  0  0  0  0  0  0
   12.6376  143.8613    3.1767 C   0  0  0  0  0  0  0  0  0  0  0  0
   14.4857  143.3161    4.7731 C   0  0  0  0  0  0  0  0  0  0  0  0
   14.7334  139.4927    1.8520 C   0  0  0  0  0  0  0  0  0  0  0  0
   15.2000  138.0439    1.9325 C   0  0  0  0  0  0  0  0  0  0  0  0
   13.8057  135.2458   -3.8138 H   0  0  0  0  0  0  0  0  0  0  0  0
   13.9752  135.0853   -5.4300 H   0  0  0  0  0  0  0  0  0  0  0  0
   14.9380  134.2372   -4.4199 H   0  0  0  0  0  0  0  0  0  0  0  0
   16.5189  135.4861   -6.1963 H   0  0  0  0  0  0  0  0  0  0  0  0
   18.1310  137.2570   -6.2455 H   0  0  0  0  0  0  0  0  0  0  0  0
   18.0101  139.0248   -4.6478 H   0  0  0  0  0  0  0  0  0  0  0  0
   16.2873  139.0455   -2.9898 H   0  0  0  0  0  0  0  0  0  0  0  0
   15.1226  134.9558   -2.7256 H   0  0  0  0  0  0  0  0  0  0  0  0
   14.0443  134.1403   -1.8096 H   0  0  0  0  0  0  0  0  0  0  0  0
   15.6011  133.4816   -0.3365 H   0  0  0  0  0  0  0  0  0  0  0  0
   16.5346  134.7978   -0.5871 H   0  0  0  0  0  0  0  0  0  0  0  0
   15.6527  131.6632   -1.8561 H   0  0  0  0  0  0  0  0  0  0  0  0
   17.1849  131.3689   -2.3383 H   0  0  0  0  0  0  0  0  0  0  0  0
   17.7459  131.6837   -4.9548 H   0  0  0  0  0  0  0  0  0  0  0  0
   13.9579  132.3896   -6.2775 H   0  0  0  0  0  0  0  0  0  0  0  0
   13.7726  132.4952   -2.5110 H   0  0  0  0  0  0  0  0  0  0  0  0
   13.1281  133.4196   -3.6928 H   0  0  0  0  0  0  0  0  0  0  0  0
   12.8261  131.8153   -3.6549 H   0  0  0  0  0  0  0  0  0  0  0  0
   17.3999  135.4832   -3.3369 H   0  0  0  0  0  0  0  0  0  0  0  0
   19.5661  136.3288   -3.9179 H   0  0  0  0  0  0  0  0  0  0  0  0
   21.3298  133.1397   -1.9332 H   0  0  0  0  0  0  0  0  0  0  0  0
   19.1614  132.2961   -1.3552 H   0  0  0  0  0  0  0  0  0  0  0  0
   15.8682  137.1652   -0.3972 H   0  0  0  0  0  0  0  0  0  0  0  0
   15.7143  135.6924    0.2910 H   0  0  0  0  0  0  0  0  0  0  0  0
   14.0774  136.3488    1.6565 H   0  0  0  0  0  0  0  0  0  0  0  0
   12.5166  137.0812    0.1057 H   0  0  0  0  0  0  0  0  0  0  0  0
   13.3579  138.4550   -0.1616 H   0  0  0  0  0  0  0  0  0  0  0  0
   11.5470  138.7598    1.4547 H   0  0  0  0  0  0  0  0  0  0  0  0
   12.3390  137.7367    2.4510 H   0  0  0  0  0  0  0  0  0  0  0  0
   12.6114  141.7163    5.8085 H   0  0  0  0  0  0  0  0  0  0  0  0
   11.9433  143.2031    5.7102 H   0  0  0  0  0  0  0  0  0  0  0  0
   11.3859  141.9935    4.7654 H   0  0  0  0  0  0  0  0  0  0  0  0
   11.8340  143.5030    2.7015 H   0  0  0  0  0  0  0  0  0  0  0  0
   12.3745  144.6563    3.7235 H   0  0  0  0  0  0  0  0  0  0  0  0
   13.3284  144.1318    2.5062 H   0  0  0  0  0  0  0  0  0  0  0  0
   15.1548  143.5637    4.0724 H   0  0  0  0  0  0  0  0  0  0  0  0
   14.2554  144.1246    5.3146 H   0  0  0  0  0  0  0  0  0  0  0  0
   14.8732  142.6141    5.3706 H   0  0  0  0  0  0  0  0  0  0  0  0
   15.2409  140.0515    2.5079 H   0  0  0  0  0  0  0  0  0  0  0  0
   14.8796  139.8473    0.9285 H   0  0  0  0  0  0  0  0  0  0  0  0
   16.1527  137.9994    1.6317 H   0  0  0  0  0  0  0  0  0  0  0  0
   15.1363  137.7416    2.8836 H   0  0  0  0  0  0  0  0  0  0  0  0
  1  2  1  0  0  0  0
  2  3  2  0  0  0  0
  3  4  1  0  0  0  0
  4  5  2  0  0  0  0
  5  6  1  0  0  0  0
  6  7  2  0  0  0  0
  7  8  1  0  0  0  0
  8  9  2  0  0  0  0
  8 10  2  0  0  0  0
  8 11  1  0  0  0  0
 11 12  1  0  0  0  0
 12 13  1  0  0  0  0
 13 14  1  0  0  0  0
 14 15  1  0  0  0  0
 15 16  1  0  0  0  0
 16 17  2  0  0  0  0
 17 18  1  0  0  0  0
 18 19  2  0  0  0  0
 19 20  1  0  0  0  0
 20 21  1  0  0  0  0
 14 22  1  0  0  0  0
 22 23  2  0  0  0  0
 23 24  1  0  0  0  0
 24 25  2  0  0  0  0
 25 26  1  0  0  0  0
 26 27  3  0  0  0  0
 25 28  1  0  0  0  0
 28 29  2  0  0  0  0
 11 30  1  0  0  0  0
 30 31  1  0  0  0  0
 31 32  1  0  0  0  0
 32 33  1  0  0  0  0
 33 34  1  0  0  0  0
 34 35  1  0  0  0  0
 35 36  2  0  0  0  0
 35 37  1  0  0  0  0
 37 38  1  0  0  0  0
 38 39  1  0  0  0  0
 38 40  1  0  0  0  0
 38 41  1  0  0  0  0
 34 42  1  0  0  0  0
 42 43  1  0  0  0  0
  7  2  1  0  0  0  0
 20 16  1  0  0  0  0
 29 22  1  0  0  0  0
 43 31  1  0  0  0  0
  1 44  1  0  0  0  0
  1 45  1  0  0  0  0
  1 46  1  0  0  0  0
  3 47  1  0  0  0  0
  4 48  1  0  0  0  0
  5 49  1  0  0  0  0
  6 50  1  0  0  0  0
 12 51  1  0  0  0  0
 12 52  1  0  0  0  0
 13 53  1  0  0  0  0
 13 54  1  0  0  0  0
 15 55  1  0  0  0  0
 15 56  1  0  0  0  0
 17 57  1  0  0  0  0
 19 58  1  0  0  0  0
 21 59  1  0  0  0  0
 21 60  1  0  0  0  0
 21 61  1  0  0  0  0
 23 62  1  0  0  0  0
 24 63  1  0  0  0  0
 28 64  1  0  0  0  0
 29 65  1  0  0  0  0
 30 66  1  0  0  0  0
 30 67  1  0  0  0  0
 31 68  1  0  0  0  0
 32 69  1  0  0  0  0
 32 70  1  0  0  0  0
 33 71  1  0  0  0  0
 33 72  1  0  0  0  0
 39 73  1  0  0  0  0
 39 74  1  0  0  0  0
 39 75  1  0  0  0  0
 40 76  1  0  0  0  0
 40 77  1  0  0  0  0
 40 78  1  0  0  0  0
 41 79  1  0  0  0  0
 41 80  1  0  0  0  0
 41 81  1  0  0  0  0
 42 82  1  0  0  0  0
 42 83  1  0  0  0  0
 43 84  1  0  0  0  0
 43 85  1  0  0  0  0
M  END
>  <docking-score>
-6.53

$$$$
3E37_ED5_3
foFlexX   03192112113D 1   1.00000     0.00000     0
FlexX 4.5.0 fol007
 85 88  0  0  0  0            999 V2000
   17.1444  138.1280   -1.8413 C   0  0  0  0  0  0  0  0  0  0  0  0
   16.7908  137.7529   -3.2713 C   0  0  0  0  0  0  0  0  0  0  0  0
   17.8031  137.7640   -4.2255 C   0  0  0  0  0  0  0  0  0  0  0  0
   17.5051  137.4248   -5.5408 C   0  0  0  0  0  0  0  0  0  0  0  0
   16.2043  137.0789   -5.8918 C   0  0  0  0  0  0  0  0  0  0  0  0
   15.1907  137.0675   -4.9391 C   0  0  0  0  0  0  0  0  0  0  0  0
   15.4891  137.4072   -3.6231 C   0  0  0  0  0  0  0  0  0  0  0  0
   14.1826  137.3870   -2.4207 S   0  0  0  0  0  0  0  0  0  0  0  0
   12.8798  137.2308   -3.1525 O   0  0  0  0  0  0  0  0  0  0  0  0
   14.1500  138.7005   -1.6876 O   0  0  0  0  0  0  0  0  0  0  0  0
   14.3800  136.0651   -1.2807 N   0  0  0  0  0  0  0  0  0  0  0  0
   14.8486  134.8213   -1.9277 C   0  0  0  0  0  0  0  0  0  0  0  0
   15.9807  134.1040   -1.1681 C   0  0  0  0  0  0  0  0  0  0  0  0
   16.8394  133.3790   -2.1116 N   0  0  0  0  0  0  0  0  0  0  0  0
   16.4486  132.0707   -2.6484 C   0  0  0  0  0  0  0  0  0  0  0  0
   16.0454  132.2012   -4.1091 C   0  0  0  0  0  0  0  0  0  0  0  0
   16.8784  132.0739   -5.1816 C   0  0  0  0  0  0  0  0  0  0  0  0
   16.1191  132.2603   -6.2986 N   0  0  0  0  0  0  0  0  0  0  0  0
   14.8775  132.4918   -5.9293 C   0  0  0  0  0  0  0  0  0  0  0  0
   14.7932  132.4560   -4.5722 N   0  0  0  0  0  0  0  0  0  0  0  0
   13.5847  132.6621   -3.7601 C   0  0  0  0  0  0  0  0  0  0  0  0
   18.1525  133.8865   -2.3890 C   0  0  0  0  0  0  0  0  0  0  0  0
   18.2888  135.0921   -3.0697 C   0  0  0  0  0  0  0  0  0  0  0  0
   19.5557  135.5954   -3.3456 C   0  0  0  0  0  0  0  0  0  0  0  0
   20.6744  134.8803   -2.9328 C   0  0  0  0  0  0  0  0  0  0  0  0
   22.0647  135.4198   -3.2267 C   0  0  0  0  0  0  0  0  0  0  0  0
   23.1232  135.8300   -3.4515 N   0  0  0  0  0  0  0  0  0  0  0  0
   20.5434  133.6745   -2.2514 C   0  0  0  0  0  0  0  0  0  0  0  0
   19.2745  133.1742   -1.9777 C   0  0  0  0  0  0  0  0  0  0  0  0
   15.1999  136.4424   -0.1098 C   0  0  0  0  0  0  0  0  0  0  0  0
   14.3270  137.0073    1.0292 C   0  0  0  0  0  0  0  0  0  0  0  0
   13.0896  137.7013    0.4775 C   0  0  0  0  0  0  0  0  0  0  0  0
   12.3827  138.2898    1.6864 C   0  0  0  0  0  0  0  0  0  0  0  0
   13.2242  139.3687    2.2243 N   0  0  0  0  0  0  0  0  0  0  0  0
   12.6676  140.3941    2.9985 C   0  0  0  0  0  0  0  0  0  0  0  0
   11.4305  140.4019    3.2434 O   0  0  0  0  0  0  0  0  0  0  0  0
   13.5005  141.4094    3.4975 O   0  0  0  0  0  0  0  0  0  0  0  0
   13.0951  142.5262    4.3026 C   0  0  0  0  0  0  0  0  0  0  0  0
   12.0459  142.0923    5.3440 C   0  0  0  0  0  0  0  0  0  0  0  0
   12.5466  143.6622    3.4182 C   0  0  0  0  0  0  0  0  0  0  0  0
   14.3453  143.0309    5.0391 C   0  0  0  0  0  0  0  0  0  0  0  0
   14.6686  139.3558    1.9404 C   0  0  0  0  0  0  0  0  0  0  0  0
   15.1287  137.9028    1.9626 C   0  0  0  0  0  0  0  0  0  0  0  0
   16.3246  138.0770   -1.2709 H   0  0  0  0  0  0  0  0  0  0  0  0
   17.8340  137.4940   -1.4913 H   0  0  0  0  0  0  0  0  0  0  0  0
   17.5072  139.0596   -1.8211 H   0  0  0  0  0  0  0  0  0  0  0  0
   18.7366  138.0135   -3.9678 H   0  0  0  0  0  0  0  0  0  0  0  0
   18.2257  137.4297   -6.2341 H   0  0  0  0  0  0  0  0  0  0  0  0
   15.9955  136.8357   -6.8391 H   0  0  0  0  0  0  0  0  0  0  0  0
   14.2574  136.8178   -5.1972 H   0  0  0  0  0  0  0  0  0  0  0  0
   15.1803  135.0494   -2.8431 H   0  0  0  0  0  0  0  0  0  0  0  0
   14.0732  134.1941   -2.0008 H   0  0  0  0  0  0  0  0  0  0  0  0
   15.5840  133.4568   -0.5171 H   0  0  0  0  0  0  0  0  0  0  0  0
   16.5281  134.7799   -0.6746 H   0  0  0  0  0  0  0  0  0  0  0  0
   15.6755  131.7156   -2.1229 H   0  0  0  0  0  0  0  0  0  0  0  0
   17.2204  131.4392   -2.5740 H   0  0  0  0  0  0  0  0  0  0  0  0
   17.8592  131.8807   -5.1540 H   0  0  0  0  0  0  0  0  0  0  0  0
   14.1138  132.6670   -6.5506 H   0  0  0  0  0  0  0  0  0  0  0  0
   13.8177  132.5868   -2.7905 H   0  0  0  0  0  0  0  0  0  0  0  0
   13.2109  133.5714   -3.9434 H   0  0  0  0  0  0  0  0  0  0  0  0
   12.9035  131.9684   -3.9940 H   0  0  0  0  0  0  0  0  0  0  0  0
   17.4760  135.5969   -3.3605 H   0  0  0  0  0  0  0  0  0  0  0  0
   19.6607  136.4611   -3.8351 H   0  0  0  0  0  0  0  0  0  0  0  0
   21.3564  133.1704   -1.9601 H   0  0  0  0  0  0  0  0  0  0  0  0
   19.1696  132.3083   -1.4886 H   0  0  0  0  0  0  0  0  0  0  0  0
   15.8629  137.1377   -0.3872 H   0  0  0  0  0  0  0  0  0  0  0  0
   15.6847  135.6333    0.2223 H   0  0  0  0  0  0  0  0  0  0  0  0
   14.0101  136.2282    1.5701 H   0  0  0  0  0  0  0  0  0  0  0  0
   12.4977  137.0430    0.0125 H   0  0  0  0  0  0  0  0  0  0  0  0
   13.3503  138.4248   -0.1616 H   0  0  0  0  0  0  0  0  0  0  0  0
   11.4933  138.6568    1.4140 H   0  0  0  0  0  0  0  0  0  0  0  0
   12.2527  137.5824    2.3812 H   0  0  0  0  0  0  0  0  0  0  0  0
   12.4369  141.3897    5.9384 H   0  0  0  0  0  0  0  0  0  0  0  0
   11.7761  142.8824    5.8945 H   0  0  0  0  0  0  0  0  0  0  0  0
   11.2435  141.7233    4.8749 H   0  0  0  0  0  0  0  0  0  0  0  0
   11.7564  143.3312    2.9024 H   0  0  0  0  0  0  0  0  0  0  0  0
   12.2697  144.4302    3.9957 H   0  0  0  0  0  0  0  0  0  0  0  0
   13.2576  143.9626    2.7824 H   0  0  0  0  0  0  0  0  0  0  0  0
   15.0355  143.3101    4.3714 H   0  0  0  0  0  0  0  0  0  0  0  0
   14.1013  143.8126    5.6130 H   0  0  0  0  0  0  0  0  0  0  0  0
   14.7130  142.2986    5.6121 H   0  0  0  0  0  0  0  0  0  0  0  0
   15.1580  139.8793    2.6378 H   0  0  0  0  0  0  0  0  0  0  0  0
   14.8429  139.7551    1.0403 H   0  0  0  0  0  0  0  0  0  0  0  0
   16.0897  137.8693    1.6881 H   0  0  0  0  0  0  0  0  0  0  0  0
   15.0361  137.5541    2.8953 H   0  0  0  0  0  0  0  0  0  0  0  0
  1  2  1  0  0  0  0
  2  3  2  0  0  0  0
  3  4  1  0  0  0  0
  4  5  2  0  0  0  0
  5  6  1  0  0  0  0
  6  7  2  0  0  0  0
  7  8  1  0  0  0  0
  8  9  2  0  0  0  0
  8 10  2  0  0  0  0
  8 11  1  0  0  0  0
 11 12  1  0  0  0  0
 12 13  1  0  0  0  0
 13 14  1  0  0  0  0
 14 15  1  0  0  0  0
 15 16  1  0  0  0  0
 16 17  2  0  0  0  0
 17 18  1  0  0  0  0
 18 19  2  0  0  0  0
 19 20  1  0  0  0  0
 20 21  1  0  0  0  0
 14 22  1  0  0  0  0
 22 23  2  0  0  0  0
 23 24  1  0  0  0  0
 24 25  2  0  0  0  0
 25 26  1  0  0  0  0
 26 27  3  0  0  0  0
 25 28  1  0  0  0  0
 28 29  2  0  0  0  0
 11 30  1  0  0  0  0
 30 31  1  0  0  0  0
 31 32  1  0  0  0  0
 32 33  1  0  0  0  0
 33 34  1  0  0  0  0
 34 35  1  0  0  0  0
 35 36  2  0  0  0  0
 35 37  1  0  0  0  0
 37 38  1  0  0  0  0
 38 39  1  0  0  0  0
 38 40  1  0  0  0  0
 38 41  1  0  0  0  0
 34 42  1  0  0  0  0
 42 43  1  0  0  0  0
  7  2  1  0  0  0  0
 20 16  1  0  0  0  0
 29 22  1  0  0  0  0
 43 31  1  0  0  0  0
  1 44  1  0  0  0  0
  1 45  1  0  0  0  0
  1 46  1  0  0  0  0
  3 47  1  0  0  0  0
  4 48  1  0  0  0  0
  5 49  1  0  0  0  0
  6 50  1  0  0  0  0
 12 51  1  0  0  0  0
 12 52  1  0  0  0  0
 13 53  1  0  0  0  0
 13 54  1  0  0  0  0
 15 55  1  0  0  0  0
 15 56  1  0  0  0  0
 17 57  1  0  0  0  0
 19 58  1  0  0  0  0
 21 59  1  0  0  0  0
 21 60  1  0  0  0  0
 21 61  1  0  0  0  0
 23 62  1  0  0  0  0
 24 63  1  0  0  0  0
 28 64  1  0  0  0  0
 29 65  1  0  0  0  0
 30 66  1  0  0  0  0
 30 67  1  0  0  0  0
 31 68  1  0  0  0  0
 32 69  1  0  0  0  0
 32 70  1  0  0  0  0
 33 71  1  0  0  0  0
 33 72  1  0  0  0  0
 39 73  1  0  0  0  0
 39 74  1  0  0  0  0
 39 75  1  0  0  0  0
 40 76  1  0  0  0  0
 40 77  1  0  0  0  0
 40 78  1  0  0  0  0
 41 79  1  0  0  0  0
 41 80  1  0  0  0  0
 41 81  1  0  0  0  0
 42 82  1  0  0  0  0
 42 83  1  0  0  0  0
 43 84  1  0  0  0  0
 43 85  1  0  0  0  0
M  END
>  <docking-score>
-5.17

$$$$
2IEJ_S48_1
foFlexX   03192112113D 1   1.00000     0.00000     0
FlexX 4.5.0 fol007
 68 72  0  0  0  0            999 V2000
   18.8343  137.3479   -8.1707 C   0  0  0  0  0  0  0  0  0  0  0  0
   19.8106  136.7087   -7.3579 O   0  0  0  0  0  0  0  0  0  0  0  0
   19.6650  136.5719   -5.9745 C   0  0  0  0  0  0  0  0  0  0  0  0
   18.5281  136.6636   -5.4350 O   0  0  0  0  0  0  0  0  0  0  0  0
   20.8781  136.3548   -5.1226 C   0  0  0  0  0  0  0  0  0  0  0  0
   20.7616  135.0911   -4.3560 N   0  0  0  0  0  0  0  0  0  0  0  0
   19.4166  134.8592   -3.8157 C   0  0  2  0  0  0  0  0  0  0  0  0
   19.0601  135.9826   -2.8515 C   0  0  0  0  0  0  0  0  0  0  0  0
   17.7537  135.6937   -2.1293 C   0  0  0  0  0  0  0  0  0  0  0  0
   17.1239  136.7677   -1.5326 C   0  0  0  0  0  0  0  0  0  0  0  0
   15.9376  136.5537   -0.8388 C   0  0  0  0  0  0  0  0  0  0  0  0
   15.2588  137.6711   -0.2142 C   0  0  0  0  0  0  0  0  0  0  0  0
   15.8038  138.9464   -0.3170 C   0  0  0  0  0  0  0  0  0  0  0  0
   15.1474  140.0146    0.2853 C   0  0  0  0  0  0  0  0  0  0  0  0
   13.9613  139.8104    0.9811 C   0  0  0  0  0  0  0  0  0  0  0  0
   13.4236  138.5309    1.0790 C   0  0  0  0  0  0  0  0  0  0  0  0
   14.0726  137.4563    0.4801 C   0  0  0  0  0  0  0  0  0  0  0  0
   15.4039  135.2737   -0.7441 C   0  0  0  0  0  0  0  0  0  0  0  0
   16.0753  134.2241   -1.3665 C   0  0  0  0  0  0  0  0  0  0  0  0
   17.2594  134.3936   -2.0811 C   0  0  0  0  0  0  0  0  0  0  0  0
   17.9060  133.3426   -2.7432 N   0  0  0  0  0  0  0  0  0  0  0  0
   17.2211  132.1046   -3.1496 C   0  0  0  0  0  0  0  0  0  0  0  0
   16.4364  132.3054   -4.4368 C   0  0  0  0  0  0  0  0  0  0  0  0
   16.9098  132.1041   -5.7001 C   0  0  0  0  0  0  0  0  0  0  0  0
   15.8901  132.3943   -6.5573 N   0  0  0  0  0  0  0  0  0  0  0  0
   14.8394  132.7575   -5.8534 C   0  0  0  0  0  0  0  0  0  0  0  0
   15.1412  132.7076   -4.5281 N   0  0  0  0  0  0  0  0  0  0  0  0
   14.2451  133.0340   -3.4088 C   0  0  0  0  0  0  0  0  0  0  0  0
   19.3150  133.5236   -3.0898 C   0  0  0  0  0  0  0  0  0  0  0  0
   21.9769  135.0945   -3.0703 S   0  0  0  0  0  0  0  0  0  0  0  0
   23.3662  135.2460   -3.6254 O   0  0  0  0  0  0  0  0  0  0  0  0
   21.9202  133.7805   -2.3420 O   0  0  0  0  0  0  0  0  0  0  0  0
   21.7188  136.4042   -1.9228 C   0  0  0  0  0  0  0  0  0  0  0  0
   21.3008  136.2501   -0.6365 C   0  0  0  0  0  0  0  0  0  0  0  0
   21.2373  137.5060   -0.1208 N   0  0  0  0  0  0  0  0  0  0  0  0
   20.8346  137.8551    1.2490 C   0  0  0  0  0  0  0  0  0  0  0  0
   21.6127  138.3871   -1.0878 C   0  0  0  0  0  0  0  0  0  0  0  0
   21.9073  137.7288   -2.1845 N   0  0  0  0  0  0  0  0  0  0  0  0
   18.7174  138.2942   -7.8693 H   0  0  0  0  0  0  0  0  0  0  0  0
   19.1353  137.3366   -9.1243 H   0  0  0  0  0  0  0  0  0  0  0  0
   17.9638  136.8624   -8.0901 H   0  0  0  0  0  0  0  0  0  0  0  0
   20.9717  137.1186   -4.4840 H   0  0  0  0  0  0  0  0  0  0  0  0
   21.6870  136.3096   -5.7089 H   0  0  0  0  0  0  0  0  0  0  0  0
   18.7616  134.8646   -4.5713 H   0  0  0  0  0  0  0  0  0  0  0  0
   19.7918  136.0775   -2.1766 H   0  0  0  0  0  0  0  0  0  0  0  0
   18.9673  136.8357   -3.3648 H   0  0  0  0  0  0  0  0  0  0  0  0
   17.5148  137.6858   -1.5983 H   0  0  0  0  0  0  0  0  0  0  0  0
   16.6569  139.0936   -0.8176 H   0  0  0  0  0  0  0  0  0  0  0  0
   15.5312  140.9355    0.2173 H   0  0  0  0  0  0  0  0  0  0  0  0
   13.4945  140.5831    1.4113 H   0  0  0  0  0  0  0  0  0  0  0  0
   12.5706  138.3839    1.5799 H   0  0  0  0  0  0  0  0  0  0  0  0
   13.6890  136.5353    0.5483 H   0  0  0  0  0  0  0  0  0  0  0  0
   14.5560  135.1100   -0.2399 H   0  0  0  0  0  0  0  0  0  0  0  0
   15.6889  133.3044   -1.2971 H   0  0  0  0  0  0  0  0  0  0  0  0
   16.5914  131.8273   -2.4239 H   0  0  0  0  0  0  0  0  0  0  0  0
   17.9026  131.3868   -3.2919 H   0  0  0  0  0  0  0  0  0  0  0  0
   17.8296  131.8013   -5.9498 H   0  0  0  0  0  0  0  0  0  0  0  0
   13.9553  133.0285   -6.2342 H   0  0  0  0  0  0  0  0  0  0  0  0
   14.7343  132.9159   -2.5447 H   0  0  0  0  0  0  0  0  0  0  0  0
   13.9397  133.9826   -3.4920 H   0  0  0  0  0  0  0  0  0  0  0  0
   13.4518  132.4255   -3.4285 H   0  0  0  0  0  0  0  0  0  0  0  0
   19.6214  132.7822   -3.6868 H   0  0  0  0  0  0  0  0  0  0  0  0
   19.8750  133.5377   -2.2614 H   0  0  0  0  0  0  0  0  0  0  0  0
   21.0855  135.3927   -0.1691 H   0  0  0  0  0  0  0  0  0  0  0  0
   20.8778  138.8472    1.3666 H   0  0  0  0  0  0  0  0  0  0  0  0
   19.8995  137.5405    1.4119 H   0  0  0  0  0  0  0  0  0  0  0  0
   21.4526  137.4150    1.9005 H   0  0  0  0  0  0  0  0  0  0  0  0
   21.6571  139.3803   -0.9797 H   0  0  0  0  0  0  0  0  0  0  0  0
  1  2  1  0  0  0  0
  2  3  1  0  0  0  0
  3  4  2  0  0  0  0
  3  5  1  0  0  0  0
  5  6  1  0  0  0  0
  6  7  1  0  0  0  0
  7  8  1  0  0  0  0
  8  9  1  0  0  0  0
  9 10  2  0  0  0  0
 10 11  1  0  0  0  0
 11 12  1  0  0  0  0
 12 13  2  0  0  0  0
 13 14  1  0  0  0  0
 14 15  2  0  0  0  0
 15 16  1  0  0  0  0
 16 17  2  0  0  0  0
 11 18  2  0  0  0  0
 18 19  1  0  0  0  0
 19 20  2  0  0  0  0
 20 21  1  0  0  0  0
 21 22  1  0  0  0  0
 22 23  1  0  0  0  0
 23 24  2  0  0  0  0
 24 25  1  0  0  0  0
 25 26  2  0  0  0  0
 26 27  1  0  0  0  0
 27 28  1  0  0  0  0
 21 29  1  0  0  0  0
  6 30  1  0  0  0  0
 30 31  2  0  0  0  0
 30 32  2  0  0  0  0
 30 33  1  0  0  0  0
 33 34  2  0  0  0  0
 34 35  1  0  0  0  0
 35 36  1  0  0  0  0
 35 37  1  0  0  0  0
 37 38  2  0  0  0  0
 29  7  1  0  0  0  0
 38 33  1  0  0  0  0
 20  9  1  0  0  0  0
 27 23  1  0  0  0  0
 17 12  1  0  0  0  0
  1 39  1  0  0  0  0
  1 40  1  0  0  0  0
  1 41  1  0  0  0  0
  5 42  1  0  0  0  0
  5 43  1  0  0  0  0
  7 44  1  0  0  0  0
  8 45  1  0  0  0  0
  8 46  1  0  0  0  0
 10 47  1  0  0  0  0
 13 48  1  0  0  0  0
 14 49  1  0  0  0  0
 15 50  1  0  0  0  0
 16 51  1  0  0  0  0
 17 52  1  0  0  0  0
 18 53  1  0  0  0  0
 19 54  1  0  0  0  0
 22 55  1  0  0  0  0
 22 56  1  0  0  0  0
 24 57  1  0  0  0  0
 26 58  1  0  0  0  0
 28 59  1  0  0  0  0
 28 60  1  0  0  0  0
 28 61  1  0  0  0  0
 29 62  1  0  0  0  0
 29 63  1  0  0  0  0
 34 64  1  0  0  0  0
 36 65  1  0  0  0  0
 36 66  1  0  0  0  0
 36 67  1  0  0  0  0
 37 68  1  0  0  0  0
M  END
>  <docking-score>
-18.88

$$$$
2IEJ_S48_2
foFlexX   03192112113D 1   1.00000     0.00000     0
FlexX 4.5.0 fol007
 68 72  0  0  0  0            999 V2000
   18.8051  137.3198   -8.1930 C   0  0  0  0  0  0  0  0  0  0  0  0
   19.7877  136.6924   -7.3786 O   0  0  0  0  0  0  0  0  0  0  0  0
   19.6410  136.5529   -5.9956 C   0  0  0  0  0  0  0  0  0  0  0  0
   18.5019  136.6299   -5.4584 O   0  0  0  0  0  0  0  0  0  0  0  0
   20.8551  136.3507   -5.1414 C   0  0  0  0  0  0  0  0  0  0  0  0
   20.7530  135.0851   -4.3758 N   0  0  0  0  0  0  0  0  0  0  0  0
   19.4099  134.8358   -3.8384 C   0  0  2  0  0  0  0  0  0  0  0  0
   19.0373  135.9539   -2.8743 C   0  0  0  0  0  0  0  0  0  0  0  0
   17.7331  135.6480   -2.1549 C   0  0  0  0  0  0  0  0  0  0  0  0
   17.0885  136.7136   -1.5588 C   0  0  0  0  0  0  0  0  0  0  0  0
   15.9037  136.4841   -0.8675 C   0  0  0  0  0  0  0  0  0  0  0  0
   15.2095  137.5924   -0.2437 C   0  0  0  0  0  0  0  0  0  0  0  0
   13.8254  137.5479   -0.1163 C   0  0  0  0  0  0  0  0  0  0  0  0
   13.1652  138.6153    0.4831 C   0  0  0  0  0  0  0  0  0  0  0  0
   13.8796  139.7131    0.9494 C   0  0  0  0  0  0  0  0  0  0  0  0
   15.2642  139.7490    0.8174 C   0  0  0  0  0  0  0  0  0  0  0  0
   15.9334  138.6864    0.2194 C   0  0  0  0  0  0  0  0  0  0  0  0
   15.3860  135.1974   -0.7748 C   0  0  0  0  0  0  0  0  0  0  0  0
   16.0720  134.1568   -1.3965 C   0  0  0  0  0  0  0  0  0  0  0  0
   17.2552  134.3417   -2.1085 C   0  0  0  0  0  0  0  0  0  0  0  0
   17.9165  133.2995   -2.7699 N   0  0  0  0  0  0  0  0  0  0  0  0
   17.2481  132.0532   -3.1785 C   0  0  0  0  0  0  0  0  0  0  0  0
   16.4636  132.2449   -4.4672 C   0  0  0  0  0  0  0  0  0  0  0  0
   16.9421  132.0504   -5.7296 C   0  0  0  0  0  0  0  0  0  0  0  0
   15.9206  132.3283   -6.5888 N   0  0  0  0  0  0  0  0  0  0  0  0
   14.8639  132.6776   -5.8869 C   0  0  0  0  0  0  0  0  0  0  0  0
   15.1636  132.6307   -4.5609 N   0  0  0  0  0  0  0  0  0  0  0  0
   14.2611  132.9450   -3.4432 C   0  0  0  0  0  0  0  0  0  0  0  0
   19.3238  133.4986   -3.1135 C   0  0  0  0  0  0  0  0  0  0  0  0
   21.9655  135.1031   -3.0876 S   0  0  0  0  0  0  0  0  0  0  0  0
   23.3539  135.2725   -3.6397 O   0  0  0  0  0  0  0  0  0  0  0  0
   21.9240  133.7880   -2.3603 O   0  0  0  0  0  0  0  0  0  0  0  0
   21.6885  136.4086   -1.9398 C   0  0  0  0  0  0  0  0  0  0  0  0
   21.2698  136.2484   -0.6545 C   0  0  0  0  0  0  0  0  0  0  0  0
   21.1894  137.5030   -0.1381 N   0  0  0  0  0  0  0  0  0  0  0  0
   20.7795  137.8461    1.2311 C   0  0  0  0  0  0  0  0  0  0  0  0
   21.5556  138.3895   -1.1037 C   0  0  0  0  0  0  0  0  0  0  0  0
   21.8607  137.7357   -2.2003 N   0  0  0  0  0  0  0  0  0  0  0  0
   18.6755  138.2643   -7.8912 H   0  0  0  0  0  0  0  0  0  0  0  0
   19.1081  137.3129   -9.1459 H   0  0  0  0  0  0  0  0  0  0  0  0
   17.9406  136.8232   -8.1145 H   0  0  0  0  0  0  0  0  0  0  0  0
   20.9376  137.1152   -4.5020 H   0  0  0  0  0  0  0  0  0  0  0  0
   21.6656  136.3161   -5.7260 H   0  0  0  0  0  0  0  0  0  0  0  0
   18.7565  134.8334   -4.5953 H   0  0  0  0  0  0  0  0  0  0  0  0
   19.7664  136.0577   -2.1977 H   0  0  0  0  0  0  0  0  0  0  0  0
   18.9347  136.8062   -3.3872 H   0  0  0  0  0  0  0  0  0  0  0  0
   17.4679  137.6366   -1.6231 H   0  0  0  0  0  0  0  0  0  0  0  0
   13.3112  136.7584   -0.4514 H   0  0  0  0  0  0  0  0  0  0  0  0
   12.1700  138.5930    0.5793 H   0  0  0  0  0  0  0  0  0  0  0  0
   13.3984  140.4768    1.3797 H   0  0  0  0  0  0  0  0  0  0  0  0
   15.7781  140.5387    1.1524 H   0  0  0  0  0  0  0  0  0  0  0  0
   16.9285  138.7087    0.1229 H   0  0  0  0  0  0  0  0  0  0  0  0
   14.5392  135.0226   -0.2724 H   0  0  0  0  0  0  0  0  0  0  0  0
   15.6971  133.2322   -1.3285 H   0  0  0  0  0  0  0  0  0  0  0  0
   16.6205  131.7674   -2.4543 H   0  0  0  0  0  0  0  0  0  0  0  0
   17.9390  131.3441   -3.3199 H   0  0  0  0  0  0  0  0  0  0  0  0
   17.8662  131.7595   -5.9777 H   0  0  0  0  0  0  0  0  0  0  0  0
   13.9772  132.9376   -6.2692 H   0  0  0  0  0  0  0  0  0  0  0  0
   14.7501  132.8325   -2.5782 H   0  0  0  0  0  0  0  0  0  0  0  0
   13.9439  133.8897   -3.5265 H   0  0  0  0  0  0  0  0  0  0  0  0
   13.4756  132.3265   -3.4650 H   0  0  0  0  0  0  0  0  0  0  0  0
   19.6408  132.7615   -3.7104 H   0  0  0  0  0  0  0  0  0  0  0  0
   19.8819  133.5191   -2.2840 H   0  0  0  0  0  0  0  0  0  0  0  0
   21.0645  135.3880   -0.1880 H   0  0  0  0  0  0  0  0  0  0  0  0
   20.8099  138.8386    1.3494 H   0  0  0  0  0  0  0  0  0  0  0  0
   19.8481  137.5196    1.3919 H   0  0  0  0  0  0  0  0  0  0  0  0
   21.4017  137.4134    1.8836 H   0  0  0  0  0  0  0  0  0  0  0  0
   21.5872  139.3830   -0.9949 H   0  0  0  0  0  0  0  0  0  0  0  0
  1  2  1  0  0  0  0
  2  3  1  0  0  0  0
  3  4  2  0  0  0  0
  3  5  1  0  0  0  0
  5  6  1  0  0  0  0
  6  7  1  0  0  0  0
  7  8  1  0  0  0  0
  8  9  1  0  0  0  0
  9 10  2  0  0  0  0
 10 11  1  0  0  0  0
 11 12  1  0  0  0  0
 12 13  2  0  0  0  0
 13 14  1  0  0  0  0
 14 15  2  0  0  0  0
 15 16  1  0  0  0  0
 16 17  2  0  0  0  0
 11 18  2  0  0  0  0
 18 19  1  0  0  0  0
 19 20  2  0  0  0  0
 20 21  1  0  0  0  0
 21 22  1  0  0  0  0
 22 23  1  0  0  0  0
 23 24  2  0  0  0  0
 24 25  1  0  0  0  0
 25 26  2  0  0  0  0
 26 27  1  0  0  0  0
 27 28  1  0  0  0  0
 21 29  1  0  0  0  0
  6 30  1  0  0  0  0
 30 31  2  0  0  0  0
 30 32  2  0  0  0  0
 30 33  1  0  0  0  0
 33 34  2  0  0  0  0
 34 35  1  0  0  0  0
 35 36  1  0  0  0  0
 35 37  1  0  0  0  0
 37 38  2  0  0  0  0
 29  7  1  0  0  0  0
 38 33  1  0  0  0  0
 20  9  1  0  0  0  0
 27 23  1  0  0  0  0
 17 12  1  0  0  0  0
  1 39  1  0  0  0  0
  1 40  1  0  0  0  0
  1 41  1  0  0  0  0
  5 42  1  0  0  0  0
  5 43  1  0  0  0  0
  7 44  1  0  0  0  0
  8 45  1  0  0  0  0
  8 46  1  0  0  0  0
 10 47  1  0  0  0  0
 13 48  1  0  0  0  0
 14 49  1  0  0  0  0
 15 50  1  0  0  0  0
 16 51  1  0  0  0  0
 17 52  1  0  0  0  0
 18 53  1  0  0  0  0
 19 54  1  0  0  0  0
 22 55  1  0  0  0  0
 22 56  1  0  0  0  0
 24 57  1  0  0  0  0
 26 58  1  0  0  0  0
 28 59  1  0  0  0  0
 28 60  1  0  0  0  0
 28 61  1  0  0  0  0
 29 62  1  0  0  0  0
 29 63  1  0  0  0  0
 34 64  1  0  0  0  0
 36 65  1  0  0  0  0
 36 66  1  0  0  0  0
 36 67  1  0  0  0  0
 37 68  1  0  0  0  0
M  END
>  <docking-score>
-17.67

$$$$
2IEJ_S48_3
foFlexX   03192112113D 1   1.00000     0.00000     0
FlexX 4.5.0 fol007
 68 72  0  0  0  0            999 V2000
   17.5644  137.3148   -6.8536 C   0  0  0  0  0  0  0  0  0  0  0  0
   18.5824  137.4056   -5.8648 O   0  0  0  0  0  0  0  0  0  0  0  0
   19.8917  136.9718   -6.0911 C   0  0  0  0  0  0  0  0  0  0  0  0
   20.3287  136.8307   -7.2664 O   0  0  0  0  0  0  0  0  0  0  0  0
   20.7689  136.6331   -4.9248 C   0  0  0  0  0  0  0  0  0  0  0  0
   20.6004  135.2120   -4.5369 N   0  0  0  0  0  0  0  0  0  0  0  0
   19.3028  134.9285   -3.9118 C   0  0  2  0  0  0  0  0  0  0  0  0
   18.9489  136.0558   -2.9514 C   0  0  0  0  0  0  0  0  0  0  0  0
   17.7034  135.7216   -2.1460 C   0  0  0  0  0  0  0  0  0  0  0  0
   17.0576  136.7778   -1.5347 C   0  0  0  0  0  0  0  0  0  0  0  0
   15.9265  136.5234   -0.7664 C   0  0  0  0  0  0  0  0  0  0  0  0
   15.2315  137.6213   -0.1253 C   0  0  0  0  0  0  0  0  0  0  0  0
   15.7058  138.9186   -0.2870 C   0  0  0  0  0  0  0  0  0  0  0  0
   15.0343  139.9678    0.3315 C   0  0  0  0  0  0  0  0  0  0  0  0
   13.9028  139.7233    1.1016 C   0  0  0  0  0  0  0  0  0  0  0  0
   13.4358  138.4221    1.2581 C   0  0  0  0  0  0  0  0  0  0  0  0
   14.1005  137.3662    0.6435 C   0  0  0  0  0  0  0  0  0  0  0  0
   15.4632  135.2219   -0.6134 C   0  0  0  0  0  0  0  0  0  0  0  0
   16.1477  134.1914   -1.2533 C   0  0  0  0  0  0  0  0  0  0  0  0
   17.2776  134.4007   -2.0412 C   0  0  0  0  0  0  0  0  0  0  0  0
   17.9351  133.3668   -2.7192 N   0  0  0  0  0  0  0  0  0  0  0  0
   17.2893  132.0881   -3.0580 C   0  0  0  0  0  0  0  0  0  0  0  0
   16.4209  132.2205   -4.2996 C   0  0  0  0  0  0  0  0  0  0  0  0
   16.8282  132.0125   -5.5846 C   0  0  0  0  0  0  0  0  0  0  0  0
   15.7464  132.2331   -6.3847 N   0  0  0  0  0  0  0  0  0  0  0  0
   14.7225  132.5618   -5.6264 C   0  0  0  0  0  0  0  0  0  0  0  0
   15.1043  132.5577   -4.3209 N   0  0  0  0  0  0  0  0  0  0  0  0
   14.2609  132.8669   -3.1567 C   0  0  0  0  0  0  0  0  0  0  0  0
   19.3104  133.6071   -3.1537 C   0  0  0  0  0  0  0  0  0  0  0  0
   21.9378  134.7528   -3.4736 S   0  0  0  0  0  0  0  0  0  0  0  0
   23.2038  135.4792   -3.8351 O   0  0  0  0  0  0  0  0  0  0  0  0
   22.2000  133.2805   -3.6277 O   0  0  0  0  0  0  0  0  0  0  0  0
   21.5881  135.1052   -1.7848 C   0  0  0  0  0  0  0  0  0  0  0  0
   22.1884  136.0775   -1.0450 C   0  0  0  0  0  0  0  0  0  0  0  0
   21.6235  135.9982    0.1886 N   0  0  0  0  0  0  0  0  0  0  0  0
   21.9475  136.8517    1.3405 C   0  0  0  0  0  0  0  0  0  0  0  0
   20.7038  134.9951    0.1764 C   0  0  0  0  0  0  0  0  0  0  0  0
   20.6743  134.4474   -1.0161 N   0  0  0  0  0  0  0  0  0  0  0  0
   17.4352  136.3574   -7.1120 H   0  0  0  0  0  0  0  0  0  0  0  0
   16.7089  137.6791   -6.4856 H   0  0  0  0  0  0  0  0  0  0  0  0
   17.8332  137.8440   -7.6584 H   0  0  0  0  0  0  0  0  0  0  0  0
   20.5243  137.2160   -4.1500 H   0  0  0  0  0  0  0  0  0  0  0  0
   21.7238  136.7940   -5.1746 H   0  0  0  0  0  0  0  0  0  0  0  0
   18.6048  134.8847   -4.6266 H   0  0  0  0  0  0  0  0  0  0  0  0
   19.7137  136.2018   -2.3238 H   0  0  0  0  0  0  0  0  0  0  0  0
   18.7839  136.8913   -3.4756 H   0  0  0  0  0  0  0  0  0  0  0  0
   17.3981  137.7119   -1.6428 H   0  0  0  0  0  0  0  0  0  0  0  0
   16.5194  139.0948   -0.8410 H   0  0  0  0  0  0  0  0  0  0  0  0
   15.3674  140.9043    0.2216 H   0  0  0  0  0  0  0  0  0  0  0  0
   13.4248  140.4826    1.5431 H   0  0  0  0  0  0  0  0  0  0  0  0
   12.6222  138.2461    1.8123 H   0  0  0  0  0  0  0  0  0  0  0  0
   13.7676  136.4297    0.7536 H   0  0  0  0  0  0  0  0  0  0  0  0
   14.6557  135.0295   -0.0558 H   0  0  0  0  0  0  0  0  0  0  0  0
   15.8120  133.2561   -1.1418 H   0  0  0  0  0  0  0  0  0  0  0  0
   16.7181  131.7979   -2.2902 H   0  0  0  0  0  0  0  0  0  0  0  0
   17.9958  131.4007   -3.2263 H   0  0  0  0  0  0  0  0  0  0  0  0
   17.7453  131.7485   -5.8830 H   0  0  0  0  0  0  0  0  0  0  0  0
   13.8051  132.7809   -5.9588 H   0  0  0  0  0  0  0  0  0  0  0  0
   14.8056  132.7928   -2.3213 H   0  0  0  0  0  0  0  0  0  0  0  0
   13.9046  133.7975   -3.2409 H   0  0  0  0  0  0  0  0  0  0  0  0
   13.4988  132.2207   -3.1160 H   0  0  0  0  0  0  0  0  0  0  0  0
   19.6173  132.8674   -3.7527 H   0  0  0  0  0  0  0  0  0  0  0  0
   19.9171  133.6675   -2.3611 H   0  0  0  0  0  0  0  0  0  0  0  0
   22.8966  136.7161   -1.3461 H   0  0  0  0  0  0  0  0  0  0  0  0
   21.3856  136.5831    2.1229 H   0  0  0  0  0  0  0  0  0  0  0  0
   22.9144  136.7456    1.5725 H   0  0  0  0  0  0  0  0  0  0  0  0
   21.7629  137.8071    1.1099 H   0  0  0  0  0  0  0  0  0  0  0  0
   20.1390  134.7186    0.9540 H   0  0  0  0  0  0  0  0  0  0  0  0
  1  2  1  0  0  0  0
  2  3  1  0  0  0  0
  3  4  2  0  0  0  0
  3  5  1  0  0  0  0
  5  6  1  0  0  0  0
  6  7  1  0  0  0  0
  7  8  1  0  0  0  0
  8  9  1  0  0  0  0
  9 10  2  0  0  0  0
 10 11  1  0  0  0  0
 11 12  1  0  0  0  0
 12 13  2  0  0  0  0
 13 14  1  0  0  0  0
 14 15  2  0  0  0  0
 15 16  1  0  0  0  0
 16 17  2  0  0  0  0
 11 18  2  0  0  0  0
 18 19  1  0  0  0  0
 19 20  2  0  0  0  0
 20 21  1  0  0  0  0
 21 22  1  0  0  0  0
 22 23  1  0  0  0  0
 23 24  2  0  0  0  0
 24 25  1  0  0  0  0
 25 26  2  0  0  0  0
 26 27  1  0  0  0  0
 27 28  1  0  0  0  0
 21 29  1  0  0  0  0
  6 30  1  0  0  0  0
 30 31  2  0  0  0  0
 30 32  2  0  0  0  0
 30 33  1  0  0  0  0
 33 34  2  0  0  0  0
 34 35  1  0  0  0  0
 35 36  1  0  0  0  0
 35 37  1  0  0  0  0
 37 38  2  0  0  0  0
 29  7  1  0  0  0  0
 38 33  1  0  0  0  0
 20  9  1  0  0  0  0
 27 23  1  0  0  0  0
 17 12  1  0  0  0  0
  1 39  1  0  0  0  0
  1 40  1  0  0  0  0
  1 41  1  0  0  0  0
  5 42  1  0  0  0  0
  5 43  1  0  0  0  0
  7 44  1  0  0  0  0
  8 45  1  0  0  0  0
  8 46  1  0  0  0  0
 10 47  1  0  0  0  0
 13 48  1  0  0  0  0
 14 49  1  0  0  0  0
 15 50  1  0  0  0  0
 16 51  1  0  0  0  0
 17 52  1  0  0  0  0
 18 53  1  0  0  0  0
 19 54  1  0  0  0  0
 22 55  1  0  0  0  0
 22 56  1  0  0  0  0
 24 57  1  0  0  0  0
 26 58  1  0  0  0  0
 28 59  1  0  0  0  0
 28 60  1  0  0  0  0
 28 61  1  0  0  0  0
 29 62  1  0  0  0  0
 29 63  1  0  0  0  0
 34 64  1  0  0  0  0
 36 65  1  0  0  0  0
 36 66  1  0  0  0  0
 36 67  1  0  0  0  0
 37 68  1  0  0  0  0
M  END
>  <docking-score>
-16.29

$$$$
