1JCQ_739_1
foFlexX   03192112223D 1   1.00000     0.00000     0
FlexX 4.5.0 fol007
 74 74  0  0  0  0            999 V2000
   20.6073  128.3520   -3.5344 C   0  0  0  0  0  0  0  0  0  0  0  0
   21.3609  128.9880   -2.3583 C   0  0  0  0  0  0  0  0  0  0  0  0
   20.6541  128.9037   -0.9712 C   0  0  2  0  0  0  0  0  0  0  0  0
   19.1437  128.6045   -1.0731 C   0  0  0  0  0  0  0  0  0  0  0  0
   20.9957  130.1031   -0.0186 C   0  0  1  0  0  0  0  0  0  0  0  0
   20.7116  131.4766   -0.6756 C   0  0  0  0  0  0  0  0  0  0  0  0
   21.6741  132.4258   -0.2645 O   0  0  0  0  0  0  0  0  0  0  0  0
   22.9782  132.0122   -0.6379 C   0  0  1  0  0  0  0  0  0  0  0  0
   23.8462  133.2521   -0.8907 C   0  0  0  0  0  0  0  0  0  0  0  0
   23.2725  134.1026   -1.9943 C   0  0  0  0  0  0  0  0  0  0  0  0
   22.3643  135.1082   -1.6811 C   0  0  0  0  0  0  0  0  0  0  0  0
   21.8381  135.8893   -2.7046 C   0  0  0  0  0  0  0  0  0  0  0  0
   22.2152  135.6680   -4.0243 C   0  0  0  0  0  0  0  0  0  0  0  0
   23.1241  134.6595   -4.3284 C   0  0  0  0  0  0  0  0  0  0  0  0
   23.6559  133.8731   -3.3118 C   0  0  0  0  0  0  0  0  0  0  0  0
   23.5979  131.1947    0.4651 C   0  0  0  0  0  0  0  0  0  0  0  0
   23.9478  130.0044    0.2364 O   0  0  0  0  0  0  0  0  0  0  0  0
   23.7316  131.7519    1.7813 N   0  0  0  0  0  0  0  0  0  0  0  0
   24.2689  130.9969    2.9171 C   0  0  2  0  0  0  0  0  0  0  0  0
   24.7404  131.9575    4.0225 C   0  0  0  0  0  0  0  0  0  0  0  0
   25.3100  131.2019    5.2294 C   0  0  0  0  0  0  0  0  0  0  0  0
   26.5702  132.1599    6.0574 S   0  0  0  0  0  0  0  0  0  0  0  0
   25.8491  133.1807    7.3252 C   0  0  0  0  0  0  0  0  0  0  0  0
   27.2522  133.0417    5.0499 O   0  0  0  0  0  0  0  0  0  0  0  0
   27.5859  131.2398    6.6740 O   0  0  0  0  0  0  0  0  0  0  0  0
   25.4137  130.1448    2.4488 C   0  0  0  0  0  0  0  0  0  0  0  0
   25.2855  128.8939    2.3805 O   0  0  0  0  0  0  0  0  0  0  0  0
   26.6220  130.7298    2.0885 O   0  5  0  0  0  0  0  0  0  0  0  0
   20.2924  129.9675    1.2892 N   0  3  0  0  0  0  0  0  0  0  0  0
   20.5930  131.0823    2.2105 C   0  0  0  0  0  0  0  0  0  0  0  0
   19.3174  131.8644    2.6167 C   0  0  1  0  0  0  0  0  0  0  0  0
   18.7083  131.2920    3.8281 N   0  3  0  0  0  0  0  0  0  0  0  0
   19.6636  133.3531    2.8326 C   0  0  0  0  0  0  0  0  0  0  0  0
   20.8165  133.5674    4.1772 S   0  0  0  0  0  0  0  0  0  0  0  0
   19.7214  128.8025   -3.6454 H   0  0  0  0  0  0  0  0  0  0  0  0
   21.1435  128.4602   -4.3715 H   0  0  0  0  0  0  0  0  0  0  0  0
   20.4659  127.3789   -3.3526 H   0  0  0  0  0  0  0  0  0  0  0  0
   21.5024  129.9546   -2.5718 H   0  0  0  0  0  0  0  0  0  0  0  0
   22.2469  128.5310   -2.2790 H   0  0  0  0  0  0  0  0  0  0  0  0
   21.0487  128.0991   -0.5274 H   0  0  0  0  0  0  0  0  0  0  0  0
   18.6674  129.4101   -1.4256 H   0  0  0  0  0  0  0  0  0  0  0  0
   18.9976  127.8333   -1.6927 H   0  0  0  0  0  0  0  0  0  0  0  0
   18.7872  128.3764   -0.1671 H   0  0  0  0  0  0  0  0  0  0  0  0
   21.9773  130.0621    0.1681 H   0  0  0  0  0  0  0  0  0  0  0  0
   19.8018  131.7904   -0.4038 H   0  0  0  0  0  0  0  0  0  0  0  0
   20.7475  131.3801   -1.6703 H   0  0  0  0  0  0  0  0  0  0  0  0
   22.9284  131.4636   -1.4725 H   0  0  0  0  0  0  0  0  0  0  0  0
   24.7665  132.9588   -1.1498 H   0  0  0  0  0  0  0  0  0  0  0  0
   23.8930  133.7943   -0.0518 H   0  0  0  0  0  0  0  0  0  0  0  0
   22.0930  135.2676   -0.7319 H   0  0  0  0  0  0  0  0  0  0  0  0
   21.1842  136.6147   -2.4897 H   0  0  0  0  0  0  0  0  0  0  0  0
   21.8332  136.2338   -4.7551 H   0  0  0  0  0  0  0  0  0  0  0  0
   23.3951  134.5000   -5.2777 H   0  0  0  0  0  0  0  0  0  0  0  0
   24.3095  133.1474   -3.5265 H   0  0  0  0  0  0  0  0  0  0  0  0
   23.4452  132.6984    1.9301 H   0  0  0  0  0  0  0  0  0  0  0  0
   23.5511  130.4052    3.2840 H   0  0  0  0  0  0  0  0  0  0  0  0
   23.9635  132.5103    4.3239 H   0  0  0  0  0  0  0  0  0  0  0  0
   25.4505  132.5554    3.6505 H   0  0  0  0  0  0  0  0  0  0  0  0
   25.7089  130.3402    4.9158 H   0  0  0  0  0  0  0  0  0  0  0  0
   24.5694  131.0113    5.8737 H   0  0  0  0  0  0  0  0  0  0  0  0
   25.1820  133.8018    6.9138 H   0  0  0  0  0  0  0  0  0  0  0  0
   25.3928  132.6011    8.0003 H   0  0  0  0  0  0  0  0  0  0  0  0
   26.5675  133.7125    7.7736 H   0  0  0  0  0  0  0  0  0  0  0  0
   20.5767  129.1105    1.7190 H   0  0  0  0  0  0  0  0  0  0  0  0
   19.3066  129.9459    1.1226 H   0  0  0  0  0  0  0  0  0  0  0  0
   21.2267  131.7110    1.7597 H   0  0  0  0  0  0  0  0  0  0  0  0
   21.0207  130.7124    3.0353 H   0  0  0  0  0  0  0  0  0  0  0  0
   18.6558  131.7992    1.8697 H   0  0  0  0  0  0  0  0  0  0  0  0
   17.7157  131.4067    3.7882 H   0  0  0  0  0  0  0  0  0  0  0  0
   18.9294  130.3184    3.8842 H   0  0  0  0  0  0  0  0  0  0  0  0
   19.0660  131.7621    4.6351 H   0  0  0  0  0  0  0  0  0  0  0  0
   18.8242  133.8551    3.0410 H   0  0  0  0  0  0  0  0  0  0  0  0
   20.0703  133.7170    1.9946 H   0  0  0  0  0  0  0  0  0  0  0  0
   20.6830  132.8396    4.8499 H   0  0  0  0  0  0  0  0  0  0  0  0
  1  2  1  0  0  0  0
  2  3  1  0  0  0  0
  3  4  1  0  0  0  0
  3  5  1  0  0  0  0
  5  6  1  0  0  0  0
  6  7  1  0  0  0  0
  7  8  1  0  0  0  0
  8  9  1  0  0  0  0
  9 10  1  0  0  0  0
 10 11  2  0  0  0  0
 11 12  1  0  0  0  0
 12 13  2  0  0  0  0
 13 14  1  0  0  0  0
 14 15  2  0  0  0  0
  8 16  1  0  0  0  0
 16 17  2  0  0  0  0
 16 18  1  0  0  0  0
 18 19  1  0  0  0  0
 19 20  1  0  0  0  0
 20 21  1  0  0  0  0
 21 22  1  0  0  0  0
 22 23  1  0  0  0  0
 22 24  2  0  0  0  0
 22 25  2  0  0  0  0
 19 26  1  0  0  0  0
 26 27  2  0  0  0  0
 26 28  1  0  0  0  0
  5 29  1  0  0  0  0
 29 30  1  0  0  0  0
 30 31  1  0  0  0  0
 31 32  1  0  0  0  0
 31 33  1  0  0  0  0
 33 34  1  0  0  0  0
 15 10  1  0  0  0  0
  1 35  1  0  0  0  0
  1 36  1  0  0  0  0
  1 37  1  0  0  0  0
  2 38  1  0  0  0  0
  2 39  1  0  0  0  0
  3 40  1  0  0  0  0
  4 41  1  0  0  0  0
  4 42  1  0  0  0  0
  4 43  1  0  0  0  0
  5 44  1  0  0  0  0
  6 45  1  0  0  0  0
  6 46  1  0  0  0  0
  8 47  1  0  0  0  0
  9 48  1  0  0  0  0
  9 49  1  0  0  0  0
 11 50  1  0  0  0  0
 12 51  1  0  0  0  0
 13 52  1  0  0  0  0
 14 53  1  0  0  0  0
 15 54  1  0  0  0  0
 18 55  1  0  0  0  0
 19 56  1  0  0  0  0
 20 57  1  0  0  0  0
 20 58  1  0  0  0  0
 21 59  1  0  0  0  0
 21 60  1  0  0  0  0
 23 61  1  0  0  0  0
 23 62  1  0  0  0  0
 23 63  1  0  0  0  0
 29 64  1  0  0  0  0
 29 65  1  0  0  0  0
 30 66  1  0  0  0  0
 30 67  1  0  0  0  0
 31 68  1  0  0  0  0
 32 69  1  0  0  0  0
 32 70  1  0  0  0  0
 32 71  1  0  0  0  0
 33 72  1  0  0  0  0
 33 73  1  0  0  0  0
 34 74  1  0  0  0  0
M  CHG  3  28  -1  29   1  32   1
M  END
>  <docking-score>
-36.18

$$$$
1JCQ_739_2
foFlexX   03192112223D 1   1.00000     0.00000     0
FlexX 4.5.0 fol007
 74 74  0  0  0  0            999 V2000
   21.8881  129.9619   -3.0752 C   0  0  0  0  0  0  0  0  0  0  0  0
   20.5523  129.4258   -2.5423 C   0  0  0  0  0  0  0  0  0  0  0  0
   20.5301  129.0303   -1.0345 C   0  0  2  0  0  0  0  0  0  0  0  0
   19.2676  128.2411   -0.6290 C   0  0  0  0  0  0  0  0  0  0  0  0
   20.8663  130.2204   -0.0682 C   0  0  1  0  0  0  0  0  0  0  0  0
   20.5620  131.5995   -0.7042 C   0  0  0  0  0  0  0  0  0  0  0  0
   21.5175  132.5535   -0.2877 O   0  0  0  0  0  0  0  0  0  0  0  0
   22.8230  132.1594   -0.6769 C   0  0  1  0  0  0  0  0  0  0  0  0
   23.6755  133.4120   -0.9197 C   0  0  0  0  0  0  0  0  0  0  0  0
   25.0761  133.0449   -1.3368 C   0  0  0  0  0  0  0  0  0  0  0  0
   25.5570  133.4731   -2.5695 C   0  0  0  0  0  0  0  0  0  0  0  0
   26.8505  133.1305   -2.9486 C   0  0  0  0  0  0  0  0  0  0  0  0
   27.6532  132.3696   -2.1061 C   0  0  0  0  0  0  0  0  0  0  0  0
   27.1635  131.9453   -0.8749 C   0  0  0  0  0  0  0  0  0  0  0  0
   25.8712  132.2829   -0.4868 C   0  0  0  0  0  0  0  0  0  0  0  0
   23.4602  131.3338    0.4099 C   0  0  0  0  0  0  0  0  0  0  0  0
   23.8213  130.1506    0.1622 O   0  0  0  0  0  0  0  0  0  0  0  0
   23.5985  131.8745    1.7324 N   0  0  0  0  0  0  0  0  0  0  0  0
   24.1530  131.1101    2.8536 C   0  0  2  0  0  0  0  0  0  0  0  0
   24.6229  132.0607    3.9682 C   0  0  0  0  0  0  0  0  0  0  0  0
   25.2102  131.2951    5.1602 C   0  0  0  0  0  0  0  0  0  0  0  0
   26.4665  132.2555    5.9913 S   0  0  0  0  0  0  0  0  0  0  0  0
   25.7446  133.2510    7.2786 C   0  0  0  0  0  0  0  0  0  0  0  0
   27.1309  133.1583    4.9906 O   0  0  0  0  0  0  0  0  0  0  0  0
   27.4971  131.3383    6.5874 O   0  0  0  0  0  0  0  0  0  0  0  0
   25.3031  130.2770    2.3648 C   0  0  0  0  0  0  0  0  0  0  0  0
   25.1880  129.0258    2.2804 O   0  0  0  0  0  0  0  0  0  0  0  0
   26.5021  130.8800    2.0030 O   0  5  0  0  0  0  0  0  0  0  0  0
   20.1750  130.0593    1.2430 N   0  3  0  0  0  0  0  0  0  0  0  0
   20.4709  131.1648    2.1771 C   0  0  0  0  0  0  0  0  0  0  0  0
   19.1901  131.9273    2.6040 C   0  0  1  0  0  0  0  0  0  0  0  0
   18.5970  131.3319    3.8122 N   0  3  0  0  0  0  0  0  0  0  0  0
   19.5218  133.4166    2.8374 C   0  0  0  0  0  0  0  0  0  0  0  0
   20.6830  133.6253    4.1757 S   0  0  0  0  0  0  0  0  0  0  0  0
   22.5966  129.2657   -2.9594 H   0  0  0  0  0  0  0  0  0  0  0  0
   21.7947  130.1843   -4.0456 H   0  0  0  0  0  0  0  0  0  0  0  0
   22.1433  130.7848   -2.5676 H   0  0  0  0  0  0  0  0  0  0  0  0
   20.3132  128.6143   -3.0755 H   0  0  0  0  0  0  0  0  0  0  0  0
   19.8599  130.1334   -2.6837 H   0  0  0  0  0  0  0  0  0  0  0  0
   21.2861  128.3851   -0.9243 H   0  0  0  0  0  0  0  0  0  0  0  0
   18.4778  128.8546   -0.6256 H   0  0  0  0  0  0  0  0  0  0  0  0
   19.1123  127.5014   -1.2837 H   0  0  0  0  0  0  0  0  0  0  0  0
   19.3944  127.8561    0.2852 H   0  0  0  0  0  0  0  0  0  0  0  0
   21.8497  130.1876    0.1101 H   0  0  0  0  0  0  0  0  0  0  0  0
   19.6511  131.8996   -0.4210 H   0  0  0  0  0  0  0  0  0  0  0  0
   20.5910  131.5169   -1.7004 H   0  0  0  0  0  0  0  0  0  0  0  0
   22.7724  131.6216   -1.5185 H   0  0  0  0  0  0  0  0  0  0  0  0
   23.7160  133.9475   -0.0761 H   0  0  0  0  0  0  0  0  0  0  0  0
   23.2528  133.9593   -1.6420 H   0  0  0  0  0  0  0  0  0  0  0  0
   24.9800  134.0205   -3.1756 H   0  0  0  0  0  0  0  0  0  0  0  0
   27.2056  133.4333   -3.8331 H   0  0  0  0  0  0  0  0  0  0  0  0
   28.5824  132.1273   -2.3850 H   0  0  0  0  0  0  0  0  0  0  0  0
   27.7406  131.3977   -0.2690 H   0  0  0  0  0  0  0  0  0  0  0  0
   25.5159  131.9799    0.3975 H   0  0  0  0  0  0  0  0  0  0  0  0
   23.3030  132.8157    1.8964 H   0  0  0  0  0  0  0  0  0  0  0  0
   23.4445  130.5056    3.2180 H   0  0  0  0  0  0  0  0  0  0  0  0
   23.8424  132.6008    4.2833 H   0  0  0  0  0  0  0  0  0  0  0  0
   25.3234  132.6713    3.5989 H   0  0  0  0  0  0  0  0  0  0  0  0
   25.6160  130.4421    4.8318 H   0  0  0  0  0  0  0  0  0  0  0  0
   24.4769  131.0877    5.8077 H   0  0  0  0  0  0  0  0  0  0  0  0
   25.0676  133.8703    6.8810 H   0  0  0  0  0  0  0  0  0  0  0  0
   25.3000  132.6574    7.9493 H   0  0  0  0  0  0  0  0  0  0  0  0
   26.4607  133.7846    7.7286 H   0  0  0  0  0  0  0  0  0  0  0  0
   20.4719  129.1998    1.6589 H   0  0  0  0  0  0  0  0  0  0  0  0
   19.1882  130.0292    1.0839 H   0  0  0  0  0  0  0  0  0  0  0  0
   21.0940  131.8065    1.7300 H   0  0  0  0  0  0  0  0  0  0  0  0
   20.9091  130.7885    2.9934 H   0  0  0  0  0  0  0  0  0  0  0  0
   18.5233  131.8650    1.8613 H   0  0  0  0  0  0  0  0  0  0  0  0
   17.6029  131.4362    3.7816 H   0  0  0  0  0  0  0  0  0  0  0  0
   18.8290  130.3601    3.8533 H   0  0  0  0  0  0  0  0  0  0  0  0
   18.9559  131.7949    4.6226 H   0  0  0  0  0  0  0  0  0  0  0  0
   18.6787  133.9065    3.0592 H   0  0  0  0  0  0  0  0  0  0  0  0
   19.9178  133.7963    2.0013 H   0  0  0  0  0  0  0  0  0  0  0  0
   20.5628  132.8871    4.8395 H   0  0  0  0  0  0  0  0  0  0  0  0
  1  2  1  0  0  0  0
  2  3  1  0  0  0  0
  3  4  1  0  0  0  0
  3  5  1  0  0  0  0
  5  6  1  0  0  0  0
  6  7  1  0  0  0  0
  7  8  1  0  0  0  0
  8  9  1  0  0  0  0
  9 10  1  0  0  0  0
 10 11  2  0  0  0  0
 11 12  1  0  0  0  0
 12 13  2  0  0  0  0
 13 14  1  0  0  0  0
 14 15  2  0  0  0  0
  8 16  1  0  0  0  0
 16 17  2  0  0  0  0
 16 18  1  0  0  0  0
 18 19  1  0  0  0  0
 19 20  1  0  0  0  0
 20 21  1  0  0  0  0
 21 22  1  0  0  0  0
 22 23  1  0  0  0  0
 22 24  2  0  0  0  0
 22 25  2  0  0  0  0
 19 26  1  0  0  0  0
 26 27  2  0  0  0  0
 26 28  1  0  0  0  0
  5 29  1  0  0  0  0
 29 30  1  0  0  0  0
 30 31  1  0  0  0  0
 31 32  1  0  0  0  0
 31 33  1  0  0  0  0
 33 34  1  0  0  0  0
 15 10  1  0  0  0  0
  1 35  1  0  0  0  0
  1 36  1  0  0  0  0
  1 37  1  0  0  0  0
  2 38  1  0  0  0  0
  2 39  1  0  0  0  0
  3 40  1  0  0  0  0
  4 41  1  0  0  0  0
  4 42  1  0  0  0  0
  4 43  1  0  0  0  0
  5 44  1  0  0  0  0
  6 45  1  0  0  0  0
  6 46  1  0  0  0  0
  8 47  1  0  0  0  0
  9 48  1  0  0  0  0
  9 49  1  0  0  0  0
 11 50  1  0  0  0  0
 12 51  1  0  0  0  0
 13 52  1  0  0  0  0
 14 53  1  0  0  0  0
 15 54  1  0  0  0  0
 18 55  1  0  0  0  0
 19 56  1  0  0  0  0
 20 57  1  0  0  0  0
 20 58  1  0  0  0  0
 21 59  1  0  0  0  0
 21 60  1  0  0  0  0
 23 61  1  0  0  0  0
 23 62  1  0  0  0  0
 23 63  1  0  0  0  0
 29 64  1  0  0  0  0
 29 65  1  0  0  0  0
 30 66  1  0  0  0  0
 30 67  1  0  0  0  0
 31 68  1  0  0  0  0
 32 69  1  0  0  0  0
 32 70  1  0  0  0  0
 32 71  1  0  0  0  0
 33 72  1  0  0  0  0
 33 73  1  0  0  0  0
 34 74  1  0  0  0  0
M  CHG  3  28  -1  29   1  32   1
M  END
>  <docking-score>
-36.14

$$$$
1JCQ_739_3
foFlexX   03192112223D 1   1.00000     0.00000     0
FlexX 4.5.0 fol007
 74 74  0  0  0  0            999 V2000
   20.3810  128.5994   -3.6152 C   0  0  0  0  0  0  0  0  0  0  0  0
   20.7183  129.6764   -2.5751 C   0  0  0  0  0  0  0  0  0  0  0  0
   20.6627  129.2242   -1.0841 C   0  0  2  0  0  0  0  0  0  0  0  0
   19.3730  128.4555   -0.7272 C   0  0  0  0  0  0  0  0  0  0  0  0
   21.0165  130.3665   -0.0679 C   0  0  1  0  0  0  0  0  0  0  0  0
   20.7597  131.7769   -0.6542 C   0  0  0  0  0  0  0  0  0  0  0  0
   21.7344  132.6873   -0.1877 O   0  0  0  0  0  0  0  0  0  0  0  0
   23.0344  132.2721   -0.5735 C   0  0  1  0  0  0  0  0  0  0  0  0
   23.9243  133.5089   -0.7556 C   0  0  0  0  0  0  0  0  0  0  0  0
   25.3206  133.1192   -1.1669 C   0  0  0  0  0  0  0  0  0  0  0  0
   25.8315  133.5807   -2.3752 C   0  0  0  0  0  0  0  0  0  0  0  0
   27.1208  133.2169   -2.7492 C   0  0  0  0  0  0  0  0  0  0  0  0
   27.8896  132.4023   -1.9256 C   0  0  0  0  0  0  0  0  0  0  0  0
   27.3700  131.9449   -0.7187 C   0  0  0  0  0  0  0  0  0  0  0  0
   26.0816  132.3033   -0.3360 C   0  0  0  0  0  0  0  0  0  0  0  0
   23.6324  131.3880    0.4894 C   0  0  0  0  0  0  0  0  0  0  0  0
   23.9647  130.2056    0.2011 O   0  0  0  0  0  0  0  0  0  0  0  0
   23.7654  131.8736    1.8337 N   0  0  0  0  0  0  0  0  0  0  0  0
   24.2818  131.0516    2.9321 C   0  0  2  0  0  0  0  0  0  0  0  0
   24.7606  131.9454    4.0892 C   0  0  0  0  0  0  0  0  0  0  0  0
   25.3087  131.1185    5.2587 C   0  0  0  0  0  0  0  0  0  0  0  0
   26.5782  132.0111    6.1439 S   0  0  0  0  0  0  0  0  0  0  0  0
   25.8643  132.9762    7.4585 C   0  0  0  0  0  0  0  0  0  0  0  0
   27.2820  132.9327    5.1884 O   0  0  0  0  0  0  0  0  0  0  0  0
   27.5742  131.0433    6.7184 O   0  0  0  0  0  0  0  0  0  0  0  0
   25.4160  130.2062    2.4275 C   0  0  0  0  0  0  0  0  0  0  0  0
   25.2681  128.9628    2.2931 O   0  0  0  0  0  0  0  0  0  0  0  0
   26.6364  130.7890    2.1062 O   0  5  0  0  0  0  0  0  0  0  0  0
   20.3014  130.1747    1.2264 N   0  3  0  0  0  0  0  0  0  0  0  0
   20.6132  131.2348    2.2066 C   0  0  0  0  0  0  0  0  0  0  0  0
   19.3475  132.0158    2.6446 C   0  0  1  0  0  0  0  0  0  0  0  0
   18.7201  131.3913    3.8205 N   0  3  0  0  0  0  0  0  0  0  0  0
   19.7162  133.4853    2.9402 C   0  0  0  0  0  0  0  0  0  0  0  0
   20.8623  133.6100    4.3018 S   0  0  0  0  0  0  0  0  0  0  0  0
   19.4512  128.2656   -3.4599 H   0  0  0  0  0  0  0  0  0  0  0  0
   20.4458  128.9906   -4.5332 H   0  0  0  0  0  0  0  0  0  0  0  0
   21.0263  127.8402   -3.5302 H   0  0  0  0  0  0  0  0  0  0  0  0
   20.0698  130.4286   -2.6915 H   0  0  0  0  0  0  0  0  0  0  0  0
   21.6448  130.0032   -2.7617 H   0  0  0  0  0  0  0  0  0  0  0  0
   21.3990  128.5544   -0.9884 H   0  0  0  0  0  0  0  0  0  0  0  0
   18.6003  129.0901   -0.7112 H   0  0  0  0  0  0  0  0  0  0  0  0
   19.2075  127.7460   -1.4122 H   0  0  0  0  0  0  0  0  0  0  0  0
   19.4755  128.0324    0.1730 H   0  0  0  0  0  0  0  0  0  0  0  0
   21.9959  130.2995    0.1229 H   0  0  0  0  0  0  0  0  0  0  0  0
   19.8532  132.0912   -0.3723 H   0  0  0  0  0  0  0  0  0  0  0  0
   20.8014  131.7318   -1.6523 H   0  0  0  0  0  0  0  0  0  0  0  0
   22.9819  131.7686   -1.4359 H   0  0  0  0  0  0  0  0  0  0  0  0
   23.9668  134.0103    0.1086 H   0  0  0  0  0  0  0  0  0  0  0  0
   23.5277  134.0951   -1.4620 H   0  0  0  0  0  0  0  0  0  0  0  0
   25.2789  134.1668   -2.9677 H   0  0  0  0  0  0  0  0  0  0  0  0
   27.4973  133.5435   -3.6161 H   0  0  0  0  0  0  0  0  0  0  0  0
   28.8159  132.1450   -2.2006 H   0  0  0  0  0  0  0  0  0  0  0  0
   27.9227  131.3586   -0.1264 H   0  0  0  0  0  0  0  0  0  0  0  0
   25.7049  131.9766    0.5308 H   0  0  0  0  0  0  0  0  0  0  0  0
   23.4933  132.8157    2.0298 H   0  0  0  0  0  0  0  0  0  0  0  0
   23.5517  130.4536    3.2628 H   0  0  0  0  0  0  0  0  0  0  0  0
   23.9906  132.4946    4.4139 H   0  0  0  0  0  0  0  0  0  0  0  0
   25.4831  132.5499    3.7536 H   0  0  0  0  0  0  0  0  0  0  0  0
   25.6960  130.2679    4.9032 H   0  0  0  0  0  0  0  0  0  0  0  0
   24.5604  130.9070    5.8873 H   0  0  0  0  0  0  0  0  0  0  0  0
   25.2105  133.6289    7.0757 H   0  0  0  0  0  0  0  0  0  0  0  0
   25.3936  132.3699    8.0994 H   0  0  0  0  0  0  0  0  0  0  0  0
   26.5879  133.4720    7.9388 H   0  0  0  0  0  0  0  0  0  0  0  0
   20.5684  129.2918    1.6127 H   0  0  0  0  0  0  0  0  0  0  0  0
   19.3166  130.1782    1.0524 H   0  0  0  0  0  0  0  0  0  0  0  0
   21.2604  131.8755    1.7934 H   0  0  0  0  0  0  0  0  0  0  0  0
   21.0286  130.8154    3.0137 H   0  0  0  0  0  0  0  0  0  0  0  0
   18.6905  132.0006    1.8909 H   0  0  0  0  0  0  0  0  0  0  0  0
   17.7298  131.5244    3.7800 H   0  0  0  0  0  0  0  0  0  0  0  0
   18.9249  130.4125    3.8271 H   0  0  0  0  0  0  0  0  0  0  0  0
   19.0793  131.8127    4.6532 H   0  0  0  0  0  0  0  0  0  0  0  0
   18.8835  133.9896    3.1690 H   0  0  0  0  0  0  0  0  0  0  0  0
   20.1350  133.8856    2.1251 H   0  0  0  0  0  0  0  0  0  0  0  0
   20.7120  132.8506    4.9347 H   0  0  0  0  0  0  0  0  0  0  0  0
  1  2  1  0  0  0  0
  2  3  1  0  0  0  0
  3  4  1  0  0  0  0
  3  5  1  0  0  0  0
  5  6  1  0  0  0  0
  6  7  1  0  0  0  0
  7  8  1  0  0  0  0
  8  9  1  0  0  0  0
  9 10  1  0  0  0  0
 10 11  2  0  0  0  0
 11 12  1  0  0  0  0
 12 13  2  0  0  0  0
 13 14  1  0  0  0  0
 14 15  2  0  0  0  0
  8 16  1  0  0  0  0
 16 17  2  0  0  0  0
 16 18  1  0  0  0  0
 18 19  1  0  0  0  0
 19 20  1  0  0  0  0
 20 21  1  0  0  0  0
 21 22  1  0  0  0  0
 22 23  1  0  0  0  0
 22 24  2  0  0  0  0
 22 25  2  0  0  0  0
 19 26  1  0  0  0  0
 26 27  2  0  0  0  0
 26 28  1  0  0  0  0
  5 29  1  0  0  0  0
 29 30  1  0  0  0  0
 30 31  1  0  0  0  0
 31 32  1  0  0  0  0
 31 33  1  0  0  0  0
 33 34  1  0  0  0  0
 15 10  1  0  0  0  0
  1 35  1  0  0  0  0
  1 36  1  0  0  0  0
  1 37  1  0  0  0  0
  2 38  1  0  0  0  0
  2 39  1  0  0  0  0
  3 40  1  0  0  0  0
  4 41  1  0  0  0  0
  4 42  1  0  0  0  0
  4 43  1  0  0  0  0
  5 44  1  0  0  0  0
  6 45  1  0  0  0  0
  6 46  1  0  0  0  0
  8 47  1  0  0  0  0
  9 48  1  0  0  0  0
  9 49  1  0  0  0  0
 11 50  1  0  0  0  0
 12 51  1  0  0  0  0
 13 52  1  0  0  0  0
 14 53  1  0  0  0  0
 15 54  1  0  0  0  0
 18 55  1  0  0  0  0
 19 56  1  0  0  0  0
 20 57  1  0  0  0  0
 20 58  1  0  0  0  0
 21 59  1  0  0  0  0
 21 60  1  0  0  0  0
 23 61  1  0  0  0  0
 23 62  1  0  0  0  0
 23 63  1  0  0  0  0
 29 64  1  0  0  0  0
 29 65  1  0  0  0  0
 30 66  1  0  0  0  0
 30 67  1  0  0  0  0
 31 68  1  0  0  0  0
 32 69  1  0  0  0  0
 32 70  1  0  0  0  0
 32 71  1  0  0  0  0
 33 72  1  0  0  0  0
 33 73  1  0  0  0  0
 34 74  1  0  0  0  0
M  CHG  3  28  -1  29   1  32   1
M  END
>  <docking-score>
-35.65

$$$$
2IEJ_FII_1
foFlexX   03192112223D 1   1.00000     0.00000     0
FlexX 4.5.0 fol007
 52 51  0  0  0  0            999 V2000
   16.0600  134.9639   -1.1283 C   0  0  0  0  0  0  0  0  0  0  0  0
   15.8961  134.4315   -2.5322 C   0  0  0  0  0  0  0  0  0  0  0  0
   14.5466  133.9463   -2.9948 C   0  0  0  0  0  0  0  0  0  0  0  0
   16.9349  134.3775   -3.3925 C   0  0  0  0  0  0  0  0  0  0  0  0
   18.3272  134.8368   -3.0325 C   0  0  0  0  0  0  0  0  0  0  0  0
   18.7949  135.9690   -3.9541 C   0  0  0  0  0  0  0  0  0  0  0  0
   20.2985  135.9395   -4.1250 C   0  0  0  0  0  0  0  0  0  0  0  0
   20.9173  136.6317   -5.3173 C   0  0  0  0  0  0  0  0  0  0  0  0
   21.0502  135.2832   -3.2114 C   0  0  0  0  0  0  0  0  0  0  0  0
   22.5537  135.1768   -3.2625 C   0  0  0  0  0  0  0  0  0  0  0  0
   23.0821  134.3650   -2.0744 C   0  0  0  0  0  0  0  0  0  0  0  0
   24.3580  133.6405   -2.4423 C   0  0  0  0  0  0  0  0  0  0  0  0
   24.2806  132.2425   -3.0093 C   0  0  0  0  0  0  0  0  0  0  0  0
   25.5452  134.2559   -2.2472 C   0  0  0  0  0  0  0  0  0  0  0  0
   26.8678  133.6215   -2.5800 C   0  0  0  0  0  0  0  0  0  0  0  0
   27.3409  132.9147   -1.4588 O   0  0  0  0  0  0  0  0  0  0  0  0
   26.4057  131.9698   -1.1741 N   0  0  0  0  0  0  0  0  0  0  0  0
   25.5948  132.0729    0.0007 C   0  0  0  0  0  0  0  0  0  0  0  0
   25.7438  133.0482    0.7850 O   0  0  0  0  0  0  0  0  0  0  0  0
   24.6079  130.9991    0.3321 C   0  0  0  0  0  0  0  0  0  0  0  0
   25.0465  130.2208    1.9148 P   0  0  0  0  0  0  0  0  0  0  0  0
   25.2983  128.7448    1.7069 O   0  0  0  0  0  0  0  0  0  0  0  0
   26.4412  130.9469    2.5371 O   0  5  0  0  0  0  0  0  0  0  0  0
   23.7737  130.4232    3.0091 O   0  5  0  0  0  0  0  0  0  0  0  0
   17.0102  135.2411   -0.9857 H   0  0  0  0  0  0  0  0  0  0  0  0
   15.4596  135.7531   -0.9989 H   0  0  0  0  0  0  0  0  0  0  0  0
   15.8187  134.2501   -0.4708 H   0  0  0  0  0  0  0  0  0  0  0  0
   14.6126  133.6296   -3.9410 H   0  0  0  0  0  0  0  0  0  0  0  0
   14.2455  133.1923   -2.4111 H   0  0  0  0  0  0  0  0  0  0  0  0
   13.8862  134.6952   -2.9393 H   0  0  0  0  0  0  0  0  0  0  0  0
   16.7746  134.0165   -4.3112 H   0  0  0  0  0  0  0  0  0  0  0  0
   18.9574  134.0651   -3.1186 H   0  0  0  0  0  0  0  0  0  0  0  0
   18.3283  135.1641   -2.0876 H   0  0  0  0  0  0  0  0  0  0  0  0
   18.5277  136.8467   -3.5562 H   0  0  0  0  0  0  0  0  0  0  0  0
   18.3614  135.8630   -4.8490 H   0  0  0  0  0  0  0  0  0  0  0  0
   21.9100  136.5143   -5.2927 H   0  0  0  0  0  0  0  0  0  0  0  0
   20.5552  136.2324   -6.1596 H   0  0  0  0  0  0  0  0  0  0  0  0
   20.6961  137.6065   -5.2886 H   0  0  0  0  0  0  0  0  0  0  0  0
   20.5769  134.8388   -2.4508 H   0  0  0  0  0  0  0  0  0  0  0  0
   22.9486  136.0950   -3.2339 H   0  0  0  0  0  0  0  0  0  0  0  0
   22.8217  134.7250   -4.1134 H   0  0  0  0  0  0  0  0  0  0  0  0
   22.3915  133.6949   -1.8024 H   0  0  0  0  0  0  0  0  0  0  0  0
   23.2653  134.9837   -1.3104 H   0  0  0  0  0  0  0  0  0  0  0  0
   25.2042  131.9048   -3.1909 H   0  0  0  0  0  0  0  0  0  0  0  0
   23.8289  131.6404   -2.3511 H   0  0  0  0  0  0  0  0  0  0  0  0
   23.7574  132.2570   -3.8615 H   0  0  0  0  0  0  0  0  0  0  0  0
   25.5444  135.1789   -1.8625 H   0  0  0  0  0  0  0  0  0  0  0  0
   27.5258  134.3322   -2.8287 H   0  0  0  0  0  0  0  0  0  0  0  0
   26.7520  132.9911   -3.3476 H   0  0  0  0  0  0  0  0  0  0  0  0
   26.2831  131.1938   -1.7927 H   0  0  0  0  0  0  0  0  0  0  0  0
   24.6154  130.3078   -0.3905 H   0  0  0  0  0  0  0  0  0  0  0  0
   23.6940  131.3990    0.4014 H   0  0  0  0  0  0  0  0  0  0  0  0
  1  2  1  0  0  0  0
  2  3  1  0  0  0  0
  2  4  2  0  0  0  0
  4  5  1  0  0  0  0
  5  6  1  0  0  0  0
  6  7  1  0  0  0  0
  7  8  1  0  0  0  0
  7  9  2  0  0  0  0
  9 10  1  0  0  0  0
 10 11  1  0  0  0  0
 11 12  1  0  0  0  0
 12 13  1  0  0  0  0
 12 14  2  0  0  0  0
 14 15  1  0  0  0  0
 15 16  1  0  0  0  0
 16 17  1  0  0  0  0
 17 18  1  0  0  0  0
 18 19  2  0  0  0  0
 18 20  1  0  0  0  0
 20 21  1  0  0  0  0
 21 22  2  0  0  0  0
 21 23  1  0  0  0  0
 21 24  1  0  0  0  0
  1 25  1  0  0  0  0
  1 26  1  0  0  0  0
  1 27  1  0  0  0  0
  3 28  1  0  0  0  0
  3 29  1  0  0  0  0
  3 30  1  0  0  0  0
  4 31  1  0  0  0  0
  5 32  1  0  0  0  0
  5 33  1  0  0  0  0
  6 34  1  0  0  0  0
  6 35  1  0  0  0  0
  8 36  1  0  0  0  0
  8 37  1  0  0  0  0
  8 38  1  0  0  0  0
  9 39  1  0  0  0  0
 10 40  1  0  0  0  0
 10 41  1  0  0  0  0
 11 42  1  0  0  0  0
 11 43  1  0  0  0  0
 13 44  1  0  0  0  0
 13 45  1  0  0  0  0
 13 46  1  0  0  0  0
 14 47  1  0  0  0  0
 15 48  1  0  0  0  0
 15 49  1  0  0  0  0
 17 50  1  0  0  0  0
 20 51  1  0  0  0  0
 20 52  1  0  0  0  0
M  CHG  2  23  -1  24  -1
M  END
>  <docking-score>
-34.15

$$$$
2IEJ_FII_2
foFlexX   03192112223D 1   1.00000     0.00000     0
FlexX 4.5.0 fol007
 52 51  0  0  0  0            999 V2000
   17.4997  133.0660   -0.9622 C   0  0  0  0  0  0  0  0  0  0  0  0
   17.9282  134.4945   -0.7232 C   0  0  0  0  0  0  0  0  0  0  0  0
   17.9247  135.0515    0.6768 C   0  0  0  0  0  0  0  0  0  0  0  0
   18.3180  135.2939   -1.7386 C   0  0  0  0  0  0  0  0  0  0  0  0
   18.3588  134.8376   -3.1772 C   0  0  0  0  0  0  0  0  0  0  0  0
   18.8409  135.9603   -4.1031 C   0  0  0  0  0  0  0  0  0  0  0  0
   20.3464  135.9255   -4.2547 C   0  0  0  0  0  0  0  0  0  0  0  0
   20.9820  136.6054   -5.4452 C   0  0  0  0  0  0  0  0  0  0  0  0
   21.0849  135.2758   -3.3257 C   0  0  0  0  0  0  0  0  0  0  0  0
   22.5886  135.1652   -3.3568 C   0  0  0  0  0  0  0  0  0  0  0  0
   23.0999  134.3630   -2.1548 C   0  0  0  0  0  0  0  0  0  0  0  0
   24.3785  133.6321   -2.5000 C   0  0  0  0  0  0  0  0  0  0  0  0
   24.3047  132.2292   -3.0552 C   0  0  0  0  0  0  0  0  0  0  0  0
   25.5647  134.2463   -2.2955 C   0  0  0  0  0  0  0  0  0  0  0  0
   26.8898  133.6057   -2.6057 C   0  0  0  0  0  0  0  0  0  0  0  0
   27.3469  132.9080   -1.4722 O   0  0  0  0  0  0  0  0  0  0  0  0
   26.4058  131.9680   -1.1909 N   0  0  0  0  0  0  0  0  0  0  0  0
   25.5804  132.0837   -0.0274 C   0  0  0  0  0  0  0  0  0  0  0  0
   25.7220  133.0658    0.7498 O   0  0  0  0  0  0  0  0  0  0  0  0
   24.5867  131.0154    0.3012 C   0  0  0  0  0  0  0  0  0  0  0  0
   25.0033  130.2505    1.8964 P   0  0  0  0  0  0  0  0  0  0  0  0
   25.2540  128.7720    1.7050 O   0  0  0  0  0  0  0  0  0  0  0  0
   26.3919  130.9788    2.5296 O   0  5  0  0  0  0  0  0  0  0  0  0
   23.7173  130.4659    2.9725 O   0  5  0  0  0  0  0  0  0  0  0  0
   17.5603  132.8587   -1.9386 H   0  0  0  0  0  0  0  0  0  0  0  0
   18.0988  132.4485   -0.4525 H   0  0  0  0  0  0  0  0  0  0  0  0
   16.5562  132.9450   -0.6537 H   0  0  0  0  0  0  0  0  0  0  0  0
   18.2332  136.0026    0.6579 H   0  0  0  0  0  0  0  0  0  0  0  0
   16.9980  135.0090    1.0501 H   0  0  0  0  0  0  0  0  0  0  0  0
   18.5406  134.5127    1.2515 H   0  0  0  0  0  0  0  0  0  0  0  0
   18.5925  136.2322   -1.5282 H   0  0  0  0  0  0  0  0  0  0  0  0
   17.4405  134.5568   -3.4562 H   0  0  0  0  0  0  0  0  0  0  0  0
   18.9831  134.0603   -3.2549 H   0  0  0  0  0  0  0  0  0  0  0  0
   18.5710  136.8422   -3.7165 H   0  0  0  0  0  0  0  0  0  0  0  0
   18.4185  135.8472   -5.0024 H   0  0  0  0  0  0  0  0  0  0  0  0
   21.9741  136.4858   -5.4070 H   0  0  0  0  0  0  0  0  0  0  0  0
   20.6296  136.1993   -6.2884 H   0  0  0  0  0  0  0  0  0  0  0  0
   20.7629  137.5809   -5.4282 H   0  0  0  0  0  0  0  0  0  0  0  0
   20.6009  134.8394   -2.5671 H   0  0  0  0  0  0  0  0  0  0  0  0
   22.9855  136.0827   -3.3315 H   0  0  0  0  0  0  0  0  0  0  0  0
   22.8662  134.7050   -4.2002 H   0  0  0  0  0  0  0  0  0  0  0  0
   22.4043  133.6970   -1.8855 H   0  0  0  0  0  0  0  0  0  0  0  0
   23.2750  134.9882   -1.3942 H   0  0  0  0  0  0  0  0  0  0  0  0
   25.2296  131.8876   -3.2220 H   0  0  0  0  0  0  0  0  0  0  0  0
   23.8432  131.6341   -2.3973 H   0  0  0  0  0  0  0  0  0  0  0  0
   23.7924  132.2371   -3.9140 H   0  0  0  0  0  0  0  0  0  0  0  0
   25.5614  135.1728   -1.9192 H   0  0  0  0  0  0  0  0  0  0  0  0
   27.5527  134.3125   -2.8525 H   0  0  0  0  0  0  0  0  0  0  0  0
   26.7821  132.9686   -3.3689 H   0  0  0  0  0  0  0  0  0  0  0  0
   26.2890  131.1867   -1.8040 H   0  0  0  0  0  0  0  0  0  0  0  0
   24.6015  130.3176   -0.4149 H   0  0  0  0  0  0  0  0  0  0  0  0
   23.6730  131.4181    0.3554 H   0  0  0  0  0  0  0  0  0  0  0  0
  1  2  1  0  0  0  0
  2  3  1  0  0  0  0
  2  4  2  0  0  0  0
  4  5  1  0  0  0  0
  5  6  1  0  0  0  0
  6  7  1  0  0  0  0
  7  8  1  0  0  0  0
  7  9  2  0  0  0  0
  9 10  1  0  0  0  0
 10 11  1  0  0  0  0
 11 12  1  0  0  0  0
 12 13  1  0  0  0  0
 12 14  2  0  0  0  0
 14 15  1  0  0  0  0
 15 16  1  0  0  0  0
 16 17  1  0  0  0  0
 17 18  1  0  0  0  0
 18 19  2  0  0  0  0
 18 20  1  0  0  0  0
 20 21  1  0  0  0  0
 21 22  2  0  0  0  0
 21 23  1  0  0  0  0
 21 24  1  0  0  0  0
  1 25  1  0  0  0  0
  1 26  1  0  0  0  0
  1 27  1  0  0  0  0
  3 28  1  0  0  0  0
  3 29  1  0  0  0  0
  3 30  1  0  0  0  0
  4 31  1  0  0  0  0
  5 32  1  0  0  0  0
  5 33  1  0  0  0  0
  6 34  1  0  0  0  0
  6 35  1  0  0  0  0
  8 36  1  0  0  0  0
  8 37  1  0  0  0  0
  8 38  1  0  0  0  0
  9 39  1  0  0  0  0
 10 40  1  0  0  0  0
 10 41  1  0  0  0  0
 11 42  1  0  0  0  0
 11 43  1  0  0  0  0
 13 44  1  0  0  0  0
 13 45  1  0  0  0  0
 13 46  1  0  0  0  0
 14 47  1  0  0  0  0
 15 48  1  0  0  0  0
 15 49  1  0  0  0  0
 17 50  1  0  0  0  0
 20 51  1  0  0  0  0
 20 52  1  0  0  0  0
M  CHG  2  23  -1  24  -1
M  END
>  <docking-score>
-33.70

$$$$
2IEJ_FII_3
foFlexX   03192112223D 1   1.00000     0.00000     0
FlexX 4.5.0 fol007
 52 51  0  0  0  0            999 V2000
   15.5351  134.1178   -2.8340 C   0  0  0  0  0  0  0  0  0  0  0  0
   15.4164  134.6887   -4.2274 C   0  0  0  0  0  0  0  0  0  0  0  0
   14.0579  135.0336   -4.7805 C   0  0  0  0  0  0  0  0  0  0  0  0
   16.5038  134.9004   -4.9985 C   0  0  0  0  0  0  0  0  0  0  0  0
   17.9095  134.5904   -4.5432 C   0  0  0  0  0  0  0  0  0  0  0  0
   18.5464  135.7972   -3.8445 C   0  0  0  0  0  0  0  0  0  0  0  0
   20.0473  135.8038   -4.0403 C   0  0  0  0  0  0  0  0  0  0  0  0
   20.6294  136.5102   -5.2427 C   0  0  0  0  0  0  0  0  0  0  0  0
   20.8296  135.1663   -3.1391 C   0  0  0  0  0  0  0  0  0  0  0  0
   22.3342  135.0962   -3.2151 C   0  0  0  0  0  0  0  0  0  0  0  0
   22.9017  134.2980   -2.0358 C   0  0  0  0  0  0  0  0  0  0  0  0
   24.1884  133.6043   -2.4247 C   0  0  0  0  0  0  0  0  0  0  0  0
   24.1354  132.2046   -2.9903 C   0  0  0  0  0  0  0  0  0  0  0  0
   25.3635  134.2483   -2.2494 C   0  0  0  0  0  0  0  0  0  0  0  0
   26.6953  133.6458   -2.6039 C   0  0  0  0  0  0  0  0  0  0  0  0
   27.2038  132.9512   -1.4906 O   0  0  0  0  0  0  0  0  0  0  0  0
   26.2966  131.9842   -1.1904 N   0  0  0  0  0  0  0  0  0  0  0  0
   25.5029  132.0682   -0.0023 C   0  0  0  0  0  0  0  0  0  0  0  0
   25.6413  133.0472    0.7792 O   0  0  0  0  0  0  0  0  0  0  0  0
   24.5479  130.9711    0.3454 C   0  0  0  0  0  0  0  0  0  0  0  0
   25.0313  130.2044    1.9208 P   0  0  0  0  0  0  0  0  0  0  0  0
   25.3152  128.7348    1.7088 O   0  0  0  0  0  0  0  0  0  0  0  0
   26.4181  130.9642    2.5198 O   0  5  0  0  0  0  0  0  0  0  0  0
   23.7722  130.3766    3.0359 O   0  5  0  0  0  0  0  0  0  0  0  0
   16.4978  133.9467   -2.6248 H   0  0  0  0  0  0  0  0  0  0  0  0
   15.1612  134.7693   -2.1739 H   0  0  0  0  0  0  0  0  0  0  0  0
   15.0247  133.2595   -2.7809 H   0  0  0  0  0  0  0  0  0  0  0  0
   14.1576  135.3969   -5.7068 H   0  0  0  0  0  0  0  0  0  0  0  0
   13.4891  134.2115   -4.8043 H   0  0  0  0  0  0  0  0  0  0  0  0
   13.6254  135.7214   -4.1975 H   0  0  0  0  0  0  0  0  0  0  0  0
   16.3723  135.2804   -5.9141 H   0  0  0  0  0  0  0  0  0  0  0  0
   18.4631  134.3448   -5.3389 H   0  0  0  0  0  0  0  0  0  0  0  0
   17.8831  133.8208   -3.9052 H   0  0  0  0  0  0  0  0  0  0  0  0
   18.3440  135.7536   -2.8662 H   0  0  0  0  0  0  0  0  0  0  0  0
   18.1625  136.6375   -4.2273 H   0  0  0  0  0  0  0  0  0  0  0  0
   21.6250  136.4168   -5.2345 H   0  0  0  0  0  0  0  0  0  0  0  0
   20.2631  136.1019   -6.0788 H   0  0  0  0  0  0  0  0  0  0  0  0
   20.3852  137.4794   -5.2104 H   0  0  0  0  0  0  0  0  0  0  0  0
   20.3799  134.7110   -2.3708 H   0  0  0  0  0  0  0  0  0  0  0  0
   22.7073  136.0237   -3.1931 H   0  0  0  0  0  0  0  0  0  0  0  0
   22.5989  134.6506   -4.0703 H   0  0  0  0  0  0  0  0  0  0  0  0
   22.2320  133.6115   -1.7524 H   0  0  0  0  0  0  0  0  0  0  0  0
   23.0825  134.9214   -1.2751 H   0  0  0  0  0  0  0  0  0  0  0  0
   25.0637  131.8892   -3.1870 H   0  0  0  0  0  0  0  0  0  0  0  0
   23.7093  131.5920   -2.3245 H   0  0  0  0  0  0  0  0  0  0  0  0
   23.5980  132.2060   -3.8336 H   0  0  0  0  0  0  0  0  0  0  0  0
   25.3467  135.1712   -1.8648 H   0  0  0  0  0  0  0  0  0  0  0  0
   27.3318  134.3721   -2.8635 H   0  0  0  0  0  0  0  0  0  0  0  0
   26.5821  133.0124   -3.3694 H   0  0  0  0  0  0  0  0  0  0  0  0
   26.1825  131.2051   -1.8069 H   0  0  0  0  0  0  0  0  0  0  0  0
   24.5600  130.2798   -0.3771 H   0  0  0  0  0  0  0  0  0  0  0  0
   23.6258  131.3488    0.4298 H   0  0  0  0  0  0  0  0  0  0  0  0
  1  2  1  0  0  0  0
  2  3  1  0  0  0  0
  2  4  2  0  0  0  0
  4  5  1  0  0  0  0
  5  6  1  0  0  0  0
  6  7  1  0  0  0  0
  7  8  1  0  0  0  0
  7  9  2  0  0  0  0
  9 10  1  0  0  0  0
 10 11  1  0  0  0  0
 11 12  1  0  0  0  0
 12 13  1  0  0  0  0
 12 14  2  0  0  0  0
 14 15  1  0  0  0  0
 15 16  1  0  0  0  0
 16 17  1  0  0  0  0
 17 18  1  0  0  0  0
 18 19  2  0  0  0  0
 18 20  1  0  0  0  0
 20 21  1  0  0  0  0
 21 22  2  0  0  0  0
 21 23  1  0  0  0  0
 21 24  1  0  0  0  0
  1 25  1  0  0  0  0
  1 26  1  0  0  0  0
  1 27  1  0  0  0  0
  3 28  1  0  0  0  0
  3 29  1  0  0  0  0
  3 30  1  0  0  0  0
  4 31  1  0  0  0  0
  5 32  1  0  0  0  0
  5 33  1  0  0  0  0
  6 34  1  0  0  0  0
  6 35  1  0  0  0  0
  8 36  1  0  0  0  0
  8 37  1  0  0  0  0
  8 38  1  0  0  0  0
  9 39  1  0  0  0  0
 10 40  1  0  0  0  0
 10 41  1  0  0  0  0
 11 42  1  0  0  0  0
 11 43  1  0  0  0  0
 13 44  1  0  0  0  0
 13 45  1  0  0  0  0
 13 46  1  0  0  0  0
 14 47  1  0  0  0  0
 15 48  1  0  0  0  0
 15 49  1  0  0  0  0
 17 50  1  0  0  0  0
 20 51  1  0  0  0  0
 20 52  1  0  0  0  0
M  CHG  2  23  -1  24  -1
M  END
>  <docking-score>
-33.68

$$$$
1LD8_FPP_1
foFlexX   03192112223D 1   1.00000     0.00000     0
FlexX 4.5.0 fol007
 49 48  0  0  0  0            999 V2000
   13.5556  130.2429   -2.9154 C   0  0  0  0  0  0  0  0  0  0  0  0
   14.8773  130.6021   -3.5534 C   0  0  0  0  0  0  0  0  0  0  0  0
   15.2839  132.0496   -3.6548 C   0  0  0  0  0  0  0  0  0  0  0  0
   15.7228  129.6605   -4.0277 C   0  0  0  0  0  0  0  0  0  0  0  0
   15.4591  128.1762   -3.9801 C   0  0  0  0  0  0  0  0  0  0  0  0
   16.7731  127.3940   -3.8771 C   0  0  0  0  0  0  0  0  0  0  0  0
   17.8231  128.2009   -3.1457 C   0  0  0  0  0  0  0  0  0  0  0  0
   17.5624  128.6367   -1.7232 C   0  0  0  0  0  0  0  0  0  0  0  0
   18.9756  128.5142   -3.7778 C   0  0  0  0  0  0  0  0  0  0  0  0
   20.0793  129.3144   -3.1296 C   0  0  0  0  0  0  0  0  0  0  0  0
   21.3855  128.5142   -3.0723 C   0  0  0  0  0  0  0  0  0  0  0  0
   22.5852  129.4343   -3.1379 C   0  0  0  0  0  0  0  0  0  0  0  0
   23.1722  129.7875   -4.4847 C   0  0  0  0  0  0  0  0  0  0  0  0
   23.1075  129.9191   -1.9887 C   0  0  0  0  0  0  0  0  0  0  0  0
   24.2959  130.8392   -1.9315 C   0  0  0  0  0  0  0  0  0  0  0  0
   23.9188  132.0476   -1.3162 O   0  0  0  0  0  0  0  0  0  0  0  0
   23.9107  131.8076    0.3709 P   0  0  0  0  0  0  0  0  0  0  0  0
   22.5224  132.1108    0.8874 O   0  0  0  0  0  0  0  0  0  0  0  0
   25.0146  132.8751    1.0861 O   0  5  0  0  0  0  0  0  0  0  0  0
   24.3051  130.1855    0.7111 O   0  0  0  0  0  0  0  0  0  0  0  0
   25.0752  130.1477    2.2279 P   0  0  0  0  0  0  0  0  0  0  0  0
   25.4250  128.7149    2.5571 O   0  0  0  0  0  0  0  0  0  0  0  0
   24.0604  130.7514    3.4411 O   0  5  0  0  0  0  0  0  0  0  0  0
   26.5014  131.0565    2.1774 O   0  5  0  0  0  0  0  0  0  0  0  0
   13.4443  129.2492   -2.9160 H   0  0  0  0  0  0  0  0  0  0  0  0
   13.5375  130.5798   -1.9740 H   0  0  0  0  0  0  0  0  0  0  0  0
   12.8103  130.6622   -3.4339 H   0  0  0  0  0  0  0  0  0  0  0  0
   16.1829  132.1137   -4.0880 H   0  0  0  0  0  0  0  0  0  0  0  0
   14.6127  132.5467   -4.2047 H   0  0  0  0  0  0  0  0  0  0  0  0
   15.3259  132.4489   -2.7390 H   0  0  0  0  0  0  0  0  0  0  0  0
   16.5811  129.9687   -4.4378 H   0  0  0  0  0  0  0  0  0  0  0  0
   14.9783  127.9016   -4.8128 H   0  0  0  0  0  0  0  0  0  0  0  0
   14.8910  127.9693   -3.1835 H   0  0  0  0  0  0  0  0  0  0  0  0
   17.1029  127.1846   -4.7976 H   0  0  0  0  0  0  0  0  0  0  0  0
   16.6093  126.5420   -3.3799 H   0  0  0  0  0  0  0  0  0  0  0  0
   18.3476  129.1549   -1.3841 H   0  0  0  0  0  0  0  0  0  0  0  0
   16.7456  129.2130   -1.6954 H   0  0  0  0  0  0  0  0  0  0  0  0
   17.4215  127.8308   -1.1482 H   0  0  0  0  0  0  0  0  0  0  0  0
   19.1033  128.2014   -4.7190 H   0  0  0  0  0  0  0  0  0  0  0  0
   19.8037  129.5556   -2.1991 H   0  0  0  0  0  0  0  0  0  0  0  0
   20.2312  130.1489   -3.6592 H   0  0  0  0  0  0  0  0  0  0  0  0
   21.4158  127.8809   -3.8457 H   0  0  0  0  0  0  0  0  0  0  0  0
   21.4156  127.9972   -2.2168 H   0  0  0  0  0  0  0  0  0  0  0  0
   23.9542  130.3976   -4.3578 H   0  0  0  0  0  0  0  0  0  0  0  0
   23.4720  128.9529   -4.9468 H   0  0  0  0  0  0  0  0  0  0  0  0
   22.4787  130.2457   -5.0407 H   0  0  0  0  0  0  0  0  0  0  0  0
   22.6786  129.6501   -1.1263 H   0  0  0  0  0  0  0  0  0  0  0  0
   24.6205  131.0237   -2.8592 H   0  0  0  0  0  0  0  0  0  0  0  0
   25.0268  130.4085   -1.4021 H   0  0  0  0  0  0  0  0  0  0  0  0
  1  2  1  0  0  0  0
  2  3  1  0  0  0  0
  2  4  2  0  0  0  0
  4  5  1  0  0  0  0
  5  6  1  0  0  0  0
  6  7  1  0  0  0  0
  7  8  1  0  0  0  0
  7  9  2  0  0  0  0
  9 10  1  0  0  0  0
 10 11  1  0  0  0  0
 11 12  1  0  0  0  0
 12 13  1  0  0  0  0
 12 14  2  0  0  0  0
 14 15  1  0  0  0  0
 15 16  1  0  0  0  0
 16 17  1  0  0  0  0
 17 18  2  0  0  0  0
 17 19  1  0  0  0  0
 17 20  1  0  0  0  0
 20 21  1  0  0  0  0
 21 22  2  0  0  0  0
 21 23  1  0  0  0  0
 21 24  1  0  0  0  0
  1 25  1  0  0  0  0
  1 26  1  0  0  0  0
  1 27  1  0  0  0  0
  3 28  1  0  0  0  0
  3 29  1  0  0  0  0
  3 30  1  0  0  0  0
  4 31  1  0  0  0  0
  5 32  1  0  0  0  0
  5 33  1  0  0  0  0
  6 34  1  0  0  0  0
  6 35  1  0  0  0  0
  8 36  1  0  0  0  0
  8 37  1  0  0  0  0
  8 38  1  0  0  0  0
  9 39  1  0  0  0  0
 10 40  1  0  0  0  0
 10 41  1  0  0  0  0
 11 42  1  0  0  0  0
 11 43  1  0  0  0  0
 13 44  1  0  0  0  0
 13 45  1  0  0  0  0
 13 46  1  0  0  0  0
 14 47  1  0  0  0  0
 15 48  1  0  0  0  0
 15 49  1  0  0  0  0
M  CHG  3  19  -1  23  -1  24  -1
M  END
>  <docking-score>
-43.28

$$$$
1LD8_FPP_2
foFlexX   03192112223D 1   1.00000     0.00000     0
FlexX 4.5.0 fol007
 49 48  0  0  0  0            999 V2000
   14.9787  130.5228   -6.0855 C   0  0  0  0  0  0  0  0  0  0  0  0
   15.9139  130.8439   -4.9431 C   0  0  0  0  0  0  0  0  0  0  0  0
   16.5758  132.1964   -4.8831 C   0  0  0  0  0  0  0  0  0  0  0  0
   16.1687  129.9575   -3.9554 C   0  0  0  0  0  0  0  0  0  0  0  0
   15.5677  128.5765   -3.8734 C   0  0  0  0  0  0  0  0  0  0  0  0
   16.6637  127.5052   -3.8885 C   0  0  0  0  0  0  0  0  0  0  0  0
   17.9375  128.0306   -3.2639 C   0  0  0  0  0  0  0  0  0  0  0  0
   17.8617  128.8015   -1.9672 C   0  0  0  0  0  0  0  0  0  0  0  0
   19.1193  127.7979   -3.8763 C   0  0  0  0  0  0  0  0  0  0  0  0
   20.4400  128.2821   -3.3289 C   0  0  0  0  0  0  0  0  0  0  0  0
   20.7847  129.6772   -3.8626 C   0  0  0  0  0  0  0  0  0  0  0  0
   22.1097  130.1546   -3.3089 C   0  0  0  0  0  0  0  0  0  0  0  0
   23.2845  129.2047   -3.2832 C   0  0  0  0  0  0  0  0  0  0  0  0
   22.2130  131.4212   -2.8468 C   0  0  0  0  0  0  0  0  0  0  0  0
   23.4763  132.0038   -2.2754 C   0  0  0  0  0  0  0  0  0  0  0  0
   23.2441  132.4030   -0.9459 O   0  0  0  0  0  0  0  0  0  0  0  0
   24.5534  131.8726    0.0071 P   0  0  0  0  0  0  0  0  0  0  0  0
   24.7509  132.8600    1.1351 O   0  0  0  0  0  0  0  0  0  0  0  0
   25.9519  131.8337   -0.9480 O   0  5  0  0  0  0  0  0  0  0  0  0
   24.1964  130.3356    0.6494 O   0  0  0  0  0  0  0  0  0  0  0  0
   24.9887  130.2052    2.1496 P   0  0  0  0  0  0  0  0  0  0  0  0
   25.3227  128.7521    2.3954 O   0  0  0  0  0  0  0  0  0  0  0  0
   24.0010  130.7560    3.4095 O   0  5  0  0  0  0  0  0  0  0  0  0
   26.4268  131.0960    2.1256 O   0  5  0  0  0  0  0  0  0  0  0  0
   14.6172  129.5975   -5.9703 H   0  0  0  0  0  0  0  0  0  0  0  0
   14.2228  131.1775   -6.0916 H   0  0  0  0  0  0  0  0  0  0  0  0
   15.4769  130.5807   -6.9506 H   0  0  0  0  0  0  0  0  0  0  0  0
   17.1490  132.2510   -4.0656 H   0  0  0  0  0  0  0  0  0  0  0  0
   17.1424  132.3266   -5.6968 H   0  0  0  0  0  0  0  0  0  0  0  0
   15.8752  132.9091   -4.8473 H   0  0  0  0  0  0  0  0  0  0  0  0
   16.7981  130.2359   -3.2299 H   0  0  0  0  0  0  0  0  0  0  0  0
   14.9608  128.4359   -4.6556 H   0  0  0  0  0  0  0  0  0  0  0  0
   15.0430  128.4969   -3.0258 H   0  0  0  0  0  0  0  0  0  0  0  0
   16.8482  127.2384   -4.8344 H   0  0  0  0  0  0  0  0  0  0  0  0
   16.3501  126.7081   -3.3724 H   0  0  0  0  0  0  0  0  0  0  0  0
   18.7820  129.0751   -1.6877 H   0  0  0  0  0  0  0  0  0  0  0  0
   17.2966  129.6164   -2.0964 H   0  0  0  0  0  0  0  0  0  0  0  0
   17.4562  128.2236   -1.2590 H   0  0  0  0  0  0  0  0  0  0  0  0
   19.1190  127.2807   -4.7322 H   0  0  0  0  0  0  0  0  0  0  0  0
   21.1594  127.6426   -3.5998 H   0  0  0  0  0  0  0  0  0  0  0  0
   20.3854  128.3192   -2.3311 H   0  0  0  0  0  0  0  0  0  0  0  0
   20.0665  130.3181   -3.5917 H   0  0  0  0  0  0  0  0  0  0  0  0
   20.8405  129.6414   -4.8604 H   0  0  0  0  0  0  0  0  0  0  0  0
   24.0788  129.6675   -2.8895 H   0  0  0  0  0  0  0  0  0  0  0  0
   23.0550  128.4056   -2.7275 H   0  0  0  0  0  0  0  0  0  0  0  0
   23.4973  128.9124   -4.2156 H   0  0  0  0  0  0  0  0  0  0  0  0
   21.4019  132.0047   -2.8874 H   0  0  0  0  0  0  0  0  0  0  0  0
   23.7543  132.7962   -2.8185 H   0  0  0  0  0  0  0  0  0  0  0  0
   24.2010  131.3150   -2.2957 H   0  0  0  0  0  0  0  0  0  0  0  0
  1  2  1  0  0  0  0
  2  3  1  0  0  0  0
  2  4  2  0  0  0  0
  4  5  1  0  0  0  0
  5  6  1  0  0  0  0
  6  7  1  0  0  0  0
  7  8  1  0  0  0  0
  7  9  2  0  0  0  0
  9 10  1  0  0  0  0
 10 11  1  0  0  0  0
 11 12  1  0  0  0  0
 12 13  1  0  0  0  0
 12 14  2  0  0  0  0
 14 15  1  0  0  0  0
 15 16  1  0  0  0  0
 16 17  1  0  0  0  0
 17 18  2  0  0  0  0
 17 19  1  0  0  0  0
 17 20  1  0  0  0  0
 20 21  1  0  0  0  0
 21 22  2  0  0  0  0
 21 23  1  0  0  0  0
 21 24  1  0  0  0  0
  1 25  1  0  0  0  0
  1 26  1  0  0  0  0
  1 27  1  0  0  0  0
  3 28  1  0  0  0  0
  3 29  1  0  0  0  0
  3 30  1  0  0  0  0
  4 31  1  0  0  0  0
  5 32  1  0  0  0  0
  5 33  1  0  0  0  0
  6 34  1  0  0  0  0
  6 35  1  0  0  0  0
  8 36  1  0  0  0  0
  8 37  1  0  0  0  0
  8 38  1  0  0  0  0
  9 39  1  0  0  0  0
 10 40  1  0  0  0  0
 10 41  1  0  0  0  0
 11 42  1  0  0  0  0
 11 43  1  0  0  0  0
 13 44  1  0  0  0  0
 13 45  1  0  0  0  0
 13 46  1  0  0  0  0
 14 47  1  0  0  0  0
 15 48  1  0  0  0  0
 15 49  1  0  0  0  0
M  CHG  3  19  -1  23  -1  24  -1
M  END
>  <docking-score>
-42.13

$$$$
1LD8_FPP_3
foFlexX   03192112223D 1   1.00000     0.00000     0
FlexX 4.5.0 fol007
 49 48  0  0  0  0            999 V2000
   15.3482  130.5771   -2.0332 C   0  0  0  0  0  0  0  0  0  0  0  0
   16.1966  130.8148   -3.2606 C   0  0  0  0  0  0  0  0  0  0  0  0
   16.8650  132.1515   -3.4538 C   0  0  0  0  0  0  0  0  0  0  0  0
   16.3912  129.8563   -4.1932 C   0  0  0  0  0  0  0  0  0  0  0  0
   15.8022  128.4693   -4.1260 C   0  0  0  0  0  0  0  0  0  0  0  0
   16.9089  127.4093   -4.1071 C   0  0  0  0  0  0  0  0  0  0  0  0
   18.1585  127.9487   -3.4466 C   0  0  0  0  0  0  0  0  0  0  0  0
   18.0371  128.7209   -2.1542 C   0  0  0  0  0  0  0  0  0  0  0  0
   19.3600  127.7269   -4.0238 C   0  0  0  0  0  0  0  0  0  0  0  0
   20.6592  128.2255   -3.4390 C   0  0  0  0  0  0  0  0  0  0  0  0
   21.0052  129.6231   -3.9652 C   0  0  0  0  0  0  0  0  0  0  0  0
   22.3085  130.1148   -3.3740 C   0  0  0  0  0  0  0  0  0  0  0  0
   23.4917  129.1770   -3.3122 C   0  0  0  0  0  0  0  0  0  0  0  0
   22.3855  131.3832   -2.9116 C   0  0  0  0  0  0  0  0  0  0  0  0
   23.6256  131.9797   -2.3047 C   0  0  0  0  0  0  0  0  0  0  0  0
   23.3506  132.3787   -0.9833 O   0  0  0  0  0  0  0  0  0  0  0  0
   24.6368  131.8632    0.0085 P   0  0  0  0  0  0  0  0  0  0  0  0
   24.7913  132.8544    1.1398 O   0  0  0  0  0  0  0  0  0  0  0  0
   26.0630  131.8370   -0.9053 O   0  5  0  0  0  0  0  0  0  0  0  0
   24.2768  130.3237    0.6431 O   0  0  0  0  0  0  0  0  0  0  0  0
   25.0262  130.2039    2.1661 P   0  0  0  0  0  0  0  0  0  0  0  0
   25.3676  128.7547    2.4244 O   0  0  0  0  0  0  0  0  0  0  0  0
   23.9967  130.7468    3.3955 O   0  5  0  0  0  0  0  0  0  0  0  0
   26.4553  131.1093    2.1823 O   0  5  0  0  0  0  0  0  0  0  0  0
   14.9903  129.6434   -2.0511 H   0  0  0  0  0  0  0  0  0  0  0  0
   15.9056  130.7048   -1.2129 H   0  0  0  0  0  0  0  0  0  0  0  0
   14.5871  131.2256   -2.0234 H   0  0  0  0  0  0  0  0  0  0  0  0
   17.3942  132.1401   -4.3022 H   0  0  0  0  0  0  0  0  0  0  0  0
   16.1691  132.8679   -3.5046 H   0  0  0  0  0  0  0  0  0  0  0  0
   17.4752  132.3336   -2.6828 H   0  0  0  0  0  0  0  0  0  0  0  0
   16.9645  130.0817   -4.9809 H   0  0  0  0  0  0  0  0  0  0  0  0
   15.2198  128.3213   -4.9254 H   0  0  0  0  0  0  0  0  0  0  0  0
   15.2537  128.3859   -3.2940 H   0  0  0  0  0  0  0  0  0  0  0  0
   17.1237  127.1428   -5.0467 H   0  0  0  0  0  0  0  0  0  0  0  0
   16.5885  126.6099   -3.5988 H   0  0  0  0  0  0  0  0  0  0  0  0
   18.9461  129.0043   -1.8485 H   0  0  0  0  0  0  0  0  0  0  0  0
   17.4678  129.5298   -2.3014 H   0  0  0  0  0  0  0  0  0  0  0  0
   17.6170  128.1401   -1.4570 H   0  0  0  0  0  0  0  0  0  0  0  0
   19.3899  127.2083   -4.8783 H   0  0  0  0  0  0  0  0  0  0  0  0
   21.3926  127.5928   -3.6875 H   0  0  0  0  0  0  0  0  0  0  0  0
   20.5751  128.2637   -2.4433 H   0  0  0  0  0  0  0  0  0  0  0  0
   20.2729  130.2571   -3.7167 H   0  0  0  0  0  0  0  0  0  0  0  0
   21.0905  129.5862   -4.9609 H   0  0  0  0  0  0  0  0  0  0  0  0
   24.2694  129.6485   -2.8964 H   0  0  0  0  0  0  0  0  0  0  0  0
   23.2542  128.3766   -2.7618 H   0  0  0  0  0  0  0  0  0  0  0  0
   23.7345  128.8853   -4.2373 H   0  0  0  0  0  0  0  0  0  0  0  0
   21.5700  131.9584   -2.9770 H   0  0  0  0  0  0  0  0  0  0  0  0
   23.9113  132.7739   -2.8410 H   0  0  0  0  0  0  0  0  0  0  0  0
   24.3575  131.2982   -2.3025 H   0  0  0  0  0  0  0  0  0  0  0  0
  1  2  1  0  0  0  0
  2  3  1  0  0  0  0
  2  4  2  0  0  0  0
  4  5  1  0  0  0  0
  5  6  1  0  0  0  0
  6  7  1  0  0  0  0
  7  8  1  0  0  0  0
  7  9  2  0  0  0  0
  9 10  1  0  0  0  0
 10 11  1  0  0  0  0
 11 12  1  0  0  0  0
 12 13  1  0  0  0  0
 12 14  2  0  0  0  0
 14 15  1  0  0  0  0
 15 16  1  0  0  0  0
 16 17  1  0  0  0  0
 17 18  2  0  0  0  0
 17 19  1  0  0  0  0
 17 20  1  0  0  0  0
 20 21  1  0  0  0  0
 21 22  2  0  0  0  0
 21 23  1  0  0  0  0
 21 24  1  0  0  0  0
  1 25  1  0  0  0  0
  1 26  1  0  0  0  0
  1 27  1  0  0  0  0
  3 28  1  0  0  0  0
  3 29  1  0  0  0  0
  3 30  1  0  0  0  0
  4 31  1  0  0  0  0
  5 32  1  0  0  0  0
  5 33  1  0  0  0  0
  6 34  1  0  0  0  0
  6 35  1  0  0  0  0
  8 36  1  0  0  0  0
  8 37  1  0  0  0  0
  8 38  1  0  0  0  0
  9 39  1  0  0  0  0
 10 40  1  0  0  0  0
 10 41  1  0  0  0  0
 11 42  1  0  0  0  0
 11 43  1  0  0  0  0
 13 44  1  0  0  0  0
 13 45  1  0  0  0  0
 13 46  1  0  0  0  0
 14 47  1  0  0  0  0
 15 48  1  0  0  0  0
 15 49  1  0  0  0  0
M  CHG  3  19  -1  23  -1  24  -1
M  END
>  <docking-score>
-42.11

$$$$
