1JCQ_739_1
foFlexX   03192112153D 1   1.00000     0.00000     0
FlexX 4.5.0 fol007
 74 74  0  0  0  0            999 V2000
   11.2048  -69.0836   -4.3236 C   0  0  0  0  0  0  0  0  0  0  0  0
   12.3908  -68.2587   -3.8093 C   0  0  0  0  0  0  0  0  0  0  0  0
   12.7698  -68.4456   -2.3101 C   0  0  2  0  0  0  0  0  0  0  0  0
   11.8324  -67.6693   -1.3666 C   0  0  0  0  0  0  0  0  0  0  0  0
   14.2822  -68.2463   -1.9359 C   0  0  1  0  0  0  0  0  0  0  0  0
   14.6530  -68.9565   -0.6013 C   0  0  0  0  0  0  0  0  0  0  0  0
   14.0030  -70.2106   -0.4706 O   0  0  0  0  0  0  0  0  0  0  0  0
   14.3385  -70.8593    0.7432 C   0  0  2  0  0  0  0  0  0  0  0  0
   13.6114  -72.2117    0.7852 C   0  0  0  0  0  0  0  0  0  0  0  0
   13.9121  -72.9759    2.0501 C   0  0  0  0  0  0  0  0  0  0  0  0
   12.8919  -73.6754    2.6855 C   0  0  0  0  0  0  0  0  0  0  0  0
   13.1759  -74.3778    3.8519 C   0  0  0  0  0  0  0  0  0  0  0  0
   14.4635  -74.3808    4.3763 C   0  0  0  0  0  0  0  0  0  0  0  0
   15.4779  -73.6778    3.7340 C   0  0  0  0  0  0  0  0  0  0  0  0
   15.2037  -72.9724    2.5670 C   0  0  0  0  0  0  0  0  0  0  0  0
   13.9317  -69.9996    1.9133 C   0  0  0  0  0  0  0  0  0  0  0  0
   12.7193  -69.6842    2.0615 O   0  0  0  0  0  0  0  0  0  0  0  0
   14.9191  -69.5443    2.8500 N   0  0  0  0  0  0  0  0  0  0  0  0
   14.5755  -68.7057    4.0043 C   0  0  1  0  0  0  0  0  0  0  0  0
   13.2198  -69.1224    4.6052 C   0  0  0  0  0  0  0  0  0  0  0  0
   12.4563  -67.9641    5.2623 C   0  0  0  0  0  0  0  0  0  0  0  0
   12.1167  -66.6787    4.0706 S   0  0  0  0  0  0  0  0  0  0  0  0
   10.5493  -66.9954    3.2927 C   0  0  0  0  0  0  0  0  0  0  0  0
   12.0621  -65.3470    4.7652 O   0  0  0  0  0  0  0  0  0  0  0  0
   13.1959  -66.6506    3.0253 O   0  0  0  0  0  0  0  0  0  0  0  0
   15.6725  -68.7194    5.0373 C   0  0  0  0  0  0  0  0  0  0  0  0
   15.7881  -67.7847    5.8743 O   0  0  0  0  0  0  0  0  0  0  0  0
   16.6036  -69.7504    5.0359 O   0  5  0  0  0  0  0  0  0  0  0  0
   15.2071  -68.6022   -3.0418 N   0  3  0  0  0  0  0  0  0  0  0  0
   16.6388  -68.4165   -2.6958 C   0  0  0  0  0  0  0  0  0  0  0  0
   17.4645  -69.7274   -2.7882 C   0  0  1  0  0  0  0  0  0  0  0  0
   16.9087  -70.6283   -3.8097 N   0  3  0  0  0  0  0  0  0  0  0  0
   18.9381  -69.3925   -3.1030 C   0  0  0  0  0  0  0  0  0  0  0  0
   19.1044  -68.5893   -4.6875 S   0  0  0  0  0  0  0  0  0  0  0  0
   10.3841  -68.8479   -3.8031 H   0  0  0  0  0  0  0  0  0  0  0  0
   11.0544  -68.8834   -5.2917 H   0  0  0  0  0  0  0  0  0  0  0  0
   11.4025  -70.0574   -4.2113 H   0  0  0  0  0  0  0  0  0  0  0  0
   12.1724  -67.2929   -3.9493 H   0  0  0  0  0  0  0  0  0  0  0  0
   13.1908  -68.5024   -4.3575 H   0  0  0  0  0  0  0  0  0  0  0  0
   12.5842  -69.4093   -2.1182 H   0  0  0  0  0  0  0  0  0  0  0  0
   12.0402  -66.6925   -1.4198 H   0  0  0  0  0  0  0  0  0  0  0  0
   10.8827  -67.8233   -1.6393 H   0  0  0  0  0  0  0  0  0  0  0  0
   11.9655  -67.9878   -0.4281 H   0  0  0  0  0  0  0  0  0  0  0  0
   14.4035  -67.2669   -1.7744 H   0  0  0  0  0  0  0  0  0  0  0  0
   14.3821  -68.3709    0.1626 H   0  0  0  0  0  0  0  0  0  0  0  0
   15.6422  -69.1010   -0.5760 H   0  0  0  0  0  0  0  0  0  0  0  0
   15.3261  -71.0137    0.7737 H   0  0  0  0  0  0  0  0  0  0  0  0
   13.9021  -72.7591    0.0004 H   0  0  0  0  0  0  0  0  0  0  0  0
   12.6260  -72.0501    0.7321 H   0  0  0  0  0  0  0  0  0  0  0  0
   11.9657  -73.6736    2.3084 H   0  0  0  0  0  0  0  0  0  0  0  0
   12.4492  -74.8838    4.3164 H   0  0  0  0  0  0  0  0  0  0  0  0
   14.6606  -74.8884    5.2151 H   0  0  0  0  0  0  0  0  0  0  0  0
   16.4040  -73.6796    4.1113 H   0  0  0  0  0  0  0  0  0  0  0  0
   15.9303  -72.4661    2.1025 H   0  0  0  0  0  0  0  0  0  0  0  0
   15.8739  -69.8074    2.7114 H   0  0  0  0  0  0  0  0  0  0  0  0
   14.4829  -67.7656    3.6762 H   0  0  0  0  0  0  0  0  0  0  0  0
   13.3835  -69.8258    5.2969 H   0  0  0  0  0  0  0  0  0  0  0  0
   12.6525  -69.5001    3.8734 H   0  0  0  0  0  0  0  0  0  0  0  0
   13.0088  -67.5859    6.0051 H   0  0  0  0  0  0  0  0  0  0  0  0
   11.5924  -68.3072    5.6308 H   0  0  0  0  0  0  0  0  0  0  0  0
   10.3570  -66.2760    2.6253 H   0  0  0  0  0  0  0  0  0  0  0  0
   10.5802  -67.8808    2.8289 H   0  0  0  0  0  0  0  0  0  0  0  0
    9.8292  -67.0076    3.9865 H   0  0  0  0  0  0  0  0  0  0  0  0
   14.9943  -68.0260   -3.8308 H   0  0  0  0  0  0  0  0  0  0  0  0
   15.0606  -69.5621   -3.2809 H   0  0  0  0  0  0  0  0  0  0  0  0
   16.6973  -68.0693   -1.7599 H   0  0  0  0  0  0  0  0  0  0  0  0
   17.0337  -67.7471   -3.3251 H   0  0  0  0  0  0  0  0  0  0  0  0
   17.4262  -70.1898   -1.9024 H   0  0  0  0  0  0  0  0  0  0  0  0
   17.4370  -71.4772   -3.8285 H   0  0  0  0  0  0  0  0  0  0  0  0
   15.9551  -70.8339   -3.5897 H   0  0  0  0  0  0  0  0  0  0  0  0
   16.9562  -70.1863   -4.7055 H   0  0  0  0  0  0  0  0  0  0  0  0
   19.4690  -70.2399   -3.1113 H   0  0  0  0  0  0  0  0  0  0  0  0
   19.2918  -68.7845   -2.3921 H   0  0  0  0  0  0  0  0  0  0  0  0
   18.3785  -68.9045   -5.2988 H   0  0  0  0  0  0  0  0  0  0  0  0
  1  2  1  0  0  0  0
  2  3  1  0  0  0  0
  3  4  1  0  0  0  0
  3  5  1  0  0  0  0
  5  6  1  0  0  0  0
  6  7  1  0  0  0  0
  7  8  1  0  0  0  0
  8  9  1  0  0  0  0
  9 10  1  0  0  0  0
 10 11  2  0  0  0  0
 11 12  1  0  0  0  0
 12 13  2  0  0  0  0
 13 14  1  0  0  0  0
 14 15  2  0  0  0  0
  8 16  1  0  0  0  0
 16 17  2  0  0  0  0
 16 18  1  0  0  0  0
 18 19  1  0  0  0  0
 19 20  1  0  0  0  0
 20 21  1  0  0  0  0
 21 22  1  0  0  0  0
 22 23  1  0  0  0  0
 22 24  2  0  0  0  0
 22 25  2  0  0  0  0
 19 26  1  0  0  0  0
 26 27  2  0  0  0  0
 26 28  1  0  0  0  0
  5 29  1  0  0  0  0
 29 30  1  0  0  0  0
 30 31  1  0  0  0  0
 31 32  1  0  0  0  0
 31 33  1  0  0  0  0
 33 34  1  0  0  0  0
 15 10  1  0  0  0  0
  1 35  1  0  0  0  0
  1 36  1  0  0  0  0
  1 37  1  0  0  0  0
  2 38  1  0  0  0  0
  2 39  1  0  0  0  0
  3 40  1  0  0  0  0
  4 41  1  0  0  0  0
  4 42  1  0  0  0  0
  4 43  1  0  0  0  0
  5 44  1  0  0  0  0
  6 45  1  0  0  0  0
  6 46  1  0  0  0  0
  8 47  1  0  0  0  0
  9 48  1  0  0  0  0
  9 49  1  0  0  0  0
 11 50  1  0  0  0  0
 12 51  1  0  0  0  0
 13 52  1  0  0  0  0
 14 53  1  0  0  0  0
 15 54  1  0  0  0  0
 18 55  1  0  0  0  0
 19 56  1  0  0  0  0
 20 57  1  0  0  0  0
 20 58  1  0  0  0  0
 21 59  1  0  0  0  0
 21 60  1  0  0  0  0
 23 61  1  0  0  0  0
 23 62  1  0  0  0  0
 23 63  1  0  0  0  0
 29 64  1  0  0  0  0
 29 65  1  0  0  0  0
 30 66  1  0  0  0  0
 30 67  1  0  0  0  0
 31 68  1  0  0  0  0
 32 69  1  0  0  0  0
 32 70  1  0  0  0  0
 32 71  1  0  0  0  0
 33 72  1  0  0  0  0
 33 73  1  0  0  0  0
 34 74  1  0  0  0  0
M  CHG  3  28  -1  29   1  32   1
M  END
>  <docking-score>
-24.12

$$$$
1JCQ_739_2
foFlexX   03192112153D 1   1.00000     0.00000     0
FlexX 4.5.0 fol007
 74 74  0  0  0  0            999 V2000
   11.2048  -69.0836   -4.3236 C   0  0  0  0  0  0  0  0  0  0  0  0
   12.3908  -68.2587   -3.8093 C   0  0  0  0  0  0  0  0  0  0  0  0
   12.7698  -68.4456   -2.3101 C   0  0  2  0  0  0  0  0  0  0  0  0
   11.8324  -67.6693   -1.3666 C   0  0  0  0  0  0  0  0  0  0  0  0
   14.2822  -68.2463   -1.9359 C   0  0  1  0  0  0  0  0  0  0  0  0
   14.6530  -68.9565   -0.6013 C   0  0  0  0  0  0  0  0  0  0  0  0
   14.0030  -70.2106   -0.4706 O   0  0  0  0  0  0  0  0  0  0  0  0
   14.3385  -70.8593    0.7432 C   0  0  2  0  0  0  0  0  0  0  0  0
   13.6114  -72.2117    0.7852 C   0  0  0  0  0  0  0  0  0  0  0  0
   13.9121  -72.9759    2.0501 C   0  0  0  0  0  0  0  0  0  0  0  0
   13.5869  -72.4163    3.2810 C   0  0  0  0  0  0  0  0  0  0  0  0
   13.8674  -73.1261    4.4437 C   0  0  0  0  0  0  0  0  0  0  0  0
   14.4652  -74.3796    4.3767 C   0  0  0  0  0  0  0  0  0  0  0  0
   14.7874  -74.9314    3.1408 C   0  0  0  0  0  0  0  0  0  0  0  0
   14.5108  -74.2292    1.9724 C   0  0  0  0  0  0  0  0  0  0  0  0
   13.9317  -69.9996    1.9133 C   0  0  0  0  0  0  0  0  0  0  0  0
   12.7193  -69.6842    2.0615 O   0  0  0  0  0  0  0  0  0  0  0  0
   14.9191  -69.5443    2.8500 N   0  0  0  0  0  0  0  0  0  0  0  0
   14.5755  -68.7057    4.0043 C   0  0  1  0  0  0  0  0  0  0  0  0
   13.2198  -69.1224    4.6052 C   0  0  0  0  0  0  0  0  0  0  0  0
   12.4563  -67.9641    5.2623 C   0  0  0  0  0  0  0  0  0  0  0  0
   12.1167  -66.6787    4.0706 S   0  0  0  0  0  0  0  0  0  0  0  0
   10.5493  -66.9954    3.2927 C   0  0  0  0  0  0  0  0  0  0  0  0
   12.0621  -65.3470    4.7652 O   0  0  0  0  0  0  0  0  0  0  0  0
   13.1959  -66.6506    3.0253 O   0  0  0  0  0  0  0  0  0  0  0  0
   15.6725  -68.7194    5.0373 C   0  0  0  0  0  0  0  0  0  0  0  0
   15.7881  -67.7847    5.8743 O   0  0  0  0  0  0  0  0  0  0  0  0
   16.6036  -69.7504    5.0359 O   0  5  0  0  0  0  0  0  0  0  0  0
   15.2071  -68.6022   -3.0418 N   0  3  0  0  0  0  0  0  0  0  0  0
   16.6388  -68.4165   -2.6958 C   0  0  0  0  0  0  0  0  0  0  0  0
   17.4645  -69.7274   -2.7882 C   0  0  1  0  0  0  0  0  0  0  0  0
   16.9087  -70.6283   -3.8097 N   0  3  0  0  0  0  0  0  0  0  0  0
   18.9381  -69.3925   -3.1030 C   0  0  0  0  0  0  0  0  0  0  0  0
   19.1044  -68.5893   -4.6875 S   0  0  0  0  0  0  0  0  0  0  0  0
   10.3841  -68.8479   -3.8031 H   0  0  0  0  0  0  0  0  0  0  0  0
   11.0544  -68.8834   -5.2917 H   0  0  0  0  0  0  0  0  0  0  0  0
   11.4025  -70.0574   -4.2113 H   0  0  0  0  0  0  0  0  0  0  0  0
   12.1724  -67.2929   -3.9493 H   0  0  0  0  0  0  0  0  0  0  0  0
   13.1908  -68.5024   -4.3575 H   0  0  0  0  0  0  0  0  0  0  0  0
   12.5842  -69.4093   -2.1182 H   0  0  0  0  0  0  0  0  0  0  0  0
   12.0402  -66.6925   -1.4198 H   0  0  0  0  0  0  0  0  0  0  0  0
   10.8827  -67.8233   -1.6393 H   0  0  0  0  0  0  0  0  0  0  0  0
   11.9655  -67.9878   -0.4281 H   0  0  0  0  0  0  0  0  0  0  0  0
   14.4035  -67.2669   -1.7744 H   0  0  0  0  0  0  0  0  0  0  0  0
   14.3821  -68.3709    0.1626 H   0  0  0  0  0  0  0  0  0  0  0  0
   15.6422  -69.1010   -0.5760 H   0  0  0  0  0  0  0  0  0  0  0  0
   15.3261  -71.0137    0.7737 H   0  0  0  0  0  0  0  0  0  0  0  0
   13.9021  -72.7591    0.0004 H   0  0  0  0  0  0  0  0  0  0  0  0
   12.6260  -72.0501    0.7321 H   0  0  0  0  0  0  0  0  0  0  0  0
   13.1568  -71.5148    3.3295 H   0  0  0  0  0  0  0  0  0  0  0  0
   13.6376  -72.7323    5.3337 H   0  0  0  0  0  0  0  0  0  0  0  0
   14.6636  -74.8845    5.2167 H   0  0  0  0  0  0  0  0  0  0  0  0
   15.2177  -75.8328    3.0925 H   0  0  0  0  0  0  0  0  0  0  0  0
   14.7408  -74.6228    1.0824 H   0  0  0  0  0  0  0  0  0  0  0  0
   15.8739  -69.8074    2.7114 H   0  0  0  0  0  0  0  0  0  0  0  0
   14.4829  -67.7656    3.6762 H   0  0  0  0  0  0  0  0  0  0  0  0
   13.3835  -69.8258    5.2969 H   0  0  0  0  0  0  0  0  0  0  0  0
   12.6525  -69.5001    3.8734 H   0  0  0  0  0  0  0  0  0  0  0  0
   13.0088  -67.5859    6.0051 H   0  0  0  0  0  0  0  0  0  0  0  0
   11.5924  -68.3072    5.6308 H   0  0  0  0  0  0  0  0  0  0  0  0
   10.3570  -66.2760    2.6253 H   0  0  0  0  0  0  0  0  0  0  0  0
   10.5802  -67.8808    2.8289 H   0  0  0  0  0  0  0  0  0  0  0  0
    9.8292  -67.0076    3.9865 H   0  0  0  0  0  0  0  0  0  0  0  0
   14.9943  -68.0260   -3.8308 H   0  0  0  0  0  0  0  0  0  0  0  0
   15.0606  -69.5621   -3.2809 H   0  0  0  0  0  0  0  0  0  0  0  0
   16.6973  -68.0693   -1.7599 H   0  0  0  0  0  0  0  0  0  0  0  0
   17.0337  -67.7471   -3.3251 H   0  0  0  0  0  0  0  0  0  0  0  0
   17.4262  -70.1898   -1.9024 H   0  0  0  0  0  0  0  0  0  0  0  0
   17.4370  -71.4772   -3.8285 H   0  0  0  0  0  0  0  0  0  0  0  0
   15.9551  -70.8339   -3.5897 H   0  0  0  0  0  0  0  0  0  0  0  0
   16.9562  -70.1863   -4.7055 H   0  0  0  0  0  0  0  0  0  0  0  0
   19.4690  -70.2399   -3.1113 H   0  0  0  0  0  0  0  0  0  0  0  0
   19.2918  -68.7845   -2.3921 H   0  0  0  0  0  0  0  0  0  0  0  0
   18.3785  -68.9045   -5.2988 H   0  0  0  0  0  0  0  0  0  0  0  0
  1  2  1  0  0  0  0
  2  3  1  0  0  0  0
  3  4  1  0  0  0  0
  3  5  1  0  0  0  0
  5  6  1  0  0  0  0
  6  7  1  0  0  0  0
  7  8  1  0  0  0  0
  8  9  1  0  0  0  0
  9 10  1  0  0  0  0
 10 11  2  0  0  0  0
 11 12  1  0  0  0  0
 12 13  2  0  0  0  0
 13 14  1  0  0  0  0
 14 15  2  0  0  0  0
  8 16  1  0  0  0  0
 16 17  2  0  0  0  0
 16 18  1  0  0  0  0
 18 19  1  0  0  0  0
 19 20  1  0  0  0  0
 20 21  1  0  0  0  0
 21 22  1  0  0  0  0
 22 23  1  0  0  0  0
 22 24  2  0  0  0  0
 22 25  2  0  0  0  0
 19 26  1  0  0  0  0
 26 27  2  0  0  0  0
 26 28  1  0  0  0  0
  5 29  1  0  0  0  0
 29 30  1  0  0  0  0
 30 31  1  0  0  0  0
 31 32  1  0  0  0  0
 31 33  1  0  0  0  0
 33 34  1  0  0  0  0
 15 10  1  0  0  0  0
  1 35  1  0  0  0  0
  1 36  1  0  0  0  0
  1 37  1  0  0  0  0
  2 38  1  0  0  0  0
  2 39  1  0  0  0  0
  3 40  1  0  0  0  0
  4 41  1  0  0  0  0
  4 42  1  0  0  0  0
  4 43  1  0  0  0  0
  5 44  1  0  0  0  0
  6 45  1  0  0  0  0
  6 46  1  0  0  0  0
  8 47  1  0  0  0  0
  9 48  1  0  0  0  0
  9 49  1  0  0  0  0
 11 50  1  0  0  0  0
 12 51  1  0  0  0  0
 13 52  1  0  0  0  0
 14 53  1  0  0  0  0
 15 54  1  0  0  0  0
 18 55  1  0  0  0  0
 19 56  1  0  0  0  0
 20 57  1  0  0  0  0
 20 58  1  0  0  0  0
 21 59  1  0  0  0  0
 21 60  1  0  0  0  0
 23 61  1  0  0  0  0
 23 62  1  0  0  0  0
 23 63  1  0  0  0  0
 29 64  1  0  0  0  0
 29 65  1  0  0  0  0
 30 66  1  0  0  0  0
 30 67  1  0  0  0  0
 31 68  1  0  0  0  0
 32 69  1  0  0  0  0
 32 70  1  0  0  0  0
 32 71  1  0  0  0  0
 33 72  1  0  0  0  0
 33 73  1  0  0  0  0
 34 74  1  0  0  0  0
M  CHG  3  28  -1  29   1  32   1
M  END
>  <docking-score>
-23.93

$$$$
1JCQ_739_3
foFlexX   03192112153D 1   1.00000     0.00000     0
FlexX 4.5.0 fol007
 74 74  0  0  0  0            999 V2000
   10.4451  -68.8569   -4.0644 C   0  0  0  0  0  0  0  0  0  0  0  0
   11.8868  -68.5407   -3.6485 C   0  0  0  0  0  0  0  0  0  0  0  0
   12.3155  -68.9983   -2.2227 C   0  0  2  0  0  0  0  0  0  0  0  0
   11.2960  -68.5886   -1.1436 C   0  0  0  0  0  0  0  0  0  0  0  0
   13.7917  -68.6758   -1.7937 C   0  0  1  0  0  0  0  0  0  0  0  0
   14.0457  -68.9898   -0.2903 C   0  0  0  0  0  0  0  0  0  0  0  0
   14.0125  -70.3835   -0.0277 O   0  0  0  0  0  0  0  0  0  0  0  0
   14.2433  -70.6723    1.3398 C   0  0  2  0  0  0  0  0  0  0  0  0
   13.7292  -72.0908    1.6274 C   0  0  0  0  0  0  0  0  0  0  0  0
   14.5107  -72.7627    2.7285 C   0  0  0  0  0  0  0  0  0  0  0  0
   14.8982  -72.0239    3.8411 C   0  0  0  0  0  0  0  0  0  0  0  0
   15.6192  -72.6495    4.8527 C   0  0  0  0  0  0  0  0  0  0  0  0
   15.9482  -73.9967    4.7533 C   0  0  0  0  0  0  0  0  0  0  0  0
   15.5566  -74.7279    3.6363 C   0  0  0  0  0  0  0  0  0  0  0  0
   14.8353  -74.1111    2.6194 C   0  0  0  0  0  0  0  0  0  0  0  0
   13.5312  -69.6626    2.2042 C   0  0  0  0  0  0  0  0  0  0  0  0
   12.2774  -69.5494    2.1241 O   0  0  0  0  0  0  0  0  0  0  0  0
   14.2774  -68.8368    3.1104 N   0  0  0  0  0  0  0  0  0  0  0  0
   13.6326  -67.8392    3.9723 C   0  0  1  0  0  0  0  0  0  0  0  0
   12.5671  -68.4932    4.8720 C   0  0  0  0  0  0  0  0  0  0  0  0
   11.8532  -67.5010    5.8006 C   0  0  0  0  0  0  0  0  0  0  0  0
   11.3410  -68.3082    7.3085 S   0  0  0  0  0  0  0  0  0  0  0  0
   11.3412  -67.1276    8.6384 C   0  0  0  0  0  0  0  0  0  0  0  0
    9.9535  -68.8606    7.1400 O   0  0  0  0  0  0  0  0  0  0  0  0
   12.2862  -69.4294    7.6365 O   0  0  0  0  0  0  0  0  0  0  0  0
   14.6493  -67.0719    4.7775 C   0  0  0  0  0  0  0  0  0  0  0  0
   14.6635  -65.8120    4.7744 O   0  0  0  0  0  0  0  0  0  0  0  0
   15.6199  -67.7614    5.4934 O   0  5  0  0  0  0  0  0  0  0  0  0
   14.8052  -69.3007   -2.6809 N   0  3  0  0  0  0  0  0  0  0  0  0
   16.0757  -69.6278   -1.9859 C   0  0  0  0  0  0  0  0  0  0  0  0
   17.3152  -69.5653   -2.9178 C   0  0  1  0  0  0  0  0  0  0  0  0
   17.1840  -70.5164   -4.0323 N   0  3  0  0  0  0  0  0  0  0  0  0
   17.4941  -68.1271   -3.4490 C   0  0  0  0  0  0  0  0  0  0  0  0
   15.9243  -67.3057   -3.6603 S   0  0  0  0  0  0  0  0  0  0  0  0
    9.8107  -68.4117   -3.4325 H   0  0  0  0  0  0  0  0  0  0  0  0
   10.2840  -68.5191   -4.9917 H   0  0  0  0  0  0  0  0  0  0  0  0
   10.3006  -69.8461   -4.0402 H   0  0  0  0  0  0  0  0  0  0  0  0
   12.0067  -67.5491   -3.6981 H   0  0  0  0  0  0  0  0  0  0  0  0
   12.4967  -68.9835   -4.3058 H   0  0  0  0  0  0  0  0  0  0  0  0
   12.2702  -69.9969   -2.2507 H   0  0  0  0  0  0  0  0  0  0  0  0
   11.3640  -67.6050   -0.9771 H   0  0  0  0  0  0  0  0  0  0  0  0
   10.3724  -68.8107   -1.4562 H   0  0  0  0  0  0  0  0  0  0  0  0
   11.4895  -69.0843   -0.2969 H   0  0  0  0  0  0  0  0  0  0  0  0
   13.9027  -67.6872   -1.8953 H   0  0  0  0  0  0  0  0  0  0  0  0
   13.3397  -68.5408    0.2574 H   0  0  0  0  0  0  0  0  0  0  0  0
   14.9440  -68.6337   -0.0330 H   0  0  0  0  0  0  0  0  0  0  0  0
   15.2252  -70.6325    1.5252 H   0  0  0  0  0  0  0  0  0  0  0  0
   13.8091  -72.6383    0.7944 H   0  0  0  0  0  0  0  0  0  0  0  0
   12.7685  -72.0369    1.8999 H   0  0  0  0  0  0  0  0  0  0  0  0
   14.6616  -71.0550    3.9129 H   0  0  0  0  0  0  0  0  0  0  0  0
   15.9027  -72.1269    5.6567 H   0  0  0  0  0  0  0  0  0  0  0  0
   16.4664  -74.4401    5.4847 H   0  0  0  0  0  0  0  0  0  0  0  0
   15.7936  -75.6967    3.5645 H   0  0  0  0  0  0  0  0  0  0  0  0
   14.5520  -74.6335    1.8152 H   0  0  0  0  0  0  0  0  0  0  0  0
   15.2705  -68.9448    3.1561 H   0  0  0  0  0  0  0  0  0  0  0  0
   13.1643  -67.1856    3.3778 H   0  0  0  0  0  0  0  0  0  0  0  0
   13.0128  -69.1888    5.4354 H   0  0  0  0  0  0  0  0  0  0  0  0
   11.8822  -68.9271    4.2866 H   0  0  0  0  0  0  0  0  0  0  0  0
   11.0481  -67.1351    5.3339 H   0  0  0  0  0  0  0  0  0  0  0  0
   12.4777  -66.7527    6.0243 H   0  0  0  0  0  0  0  0  0  0  0  0
   11.0539  -67.5778    9.4838 H   0  0  0  0  0  0  0  0  0  0  0  0
   12.2626  -66.7568    8.7548 H   0  0  0  0  0  0  0  0  0  0  0  0
   10.7073  -66.3844    8.4244 H   0  0  0  0  0  0  0  0  0  0  0  0
   15.0066  -68.6669   -3.4277 H   0  0  0  0  0  0  0  0  0  0  0  0
   14.4218  -70.1452   -3.0546 H   0  0  0  0  0  0  0  0  0  0  0  0
   16.0049  -70.5529   -1.6127 H   0  0  0  0  0  0  0  0  0  0  0  0
   16.2064  -68.9761   -1.2388 H   0  0  0  0  0  0  0  0  0  0  0  0
   18.1255  -69.8101   -2.3852 H   0  0  0  0  0  0  0  0  0  0  0  0
   17.2394  -70.0226   -4.9001 H   0  0  0  0  0  0  0  0  0  0  0  0
   17.9216  -71.1899   -3.9844 H   0  0  0  0  0  0  0  0  0  0  0  0
   16.3018  -70.9832   -3.9701 H   0  0  0  0  0  0  0  0  0  0  0  0
   17.9631  -68.1629   -4.3315 H   0  0  0  0  0  0  0  0  0  0  0  0
   18.0475  -67.6071   -2.7984 H   0  0  0  0  0  0  0  0  0  0  0  0
   15.2209  -67.9821   -3.8785 H   0  0  0  0  0  0  0  0  0  0  0  0
  1  2  1  0  0  0  0
  2  3  1  0  0  0  0
  3  4  1  0  0  0  0
  3  5  1  0  0  0  0
  5  6  1  0  0  0  0
  6  7  1  0  0  0  0
  7  8  1  0  0  0  0
  8  9  1  0  0  0  0
  9 10  1  0  0  0  0
 10 11  2  0  0  0  0
 11 12  1  0  0  0  0
 12 13  2  0  0  0  0
 13 14  1  0  0  0  0
 14 15  2  0  0  0  0
  8 16  1  0  0  0  0
 16 17  2  0  0  0  0
 16 18  1  0  0  0  0
 18 19  1  0  0  0  0
 19 20  1  0  0  0  0
 20 21  1  0  0  0  0
 21 22  1  0  0  0  0
 22 23  1  0  0  0  0
 22 24  2  0  0  0  0
 22 25  2  0  0  0  0
 19 26  1  0  0  0  0
 26 27  2  0  0  0  0
 26 28  1  0  0  0  0
  5 29  1  0  0  0  0
 29 30  1  0  0  0  0
 30 31  1  0  0  0  0
 31 32  1  0  0  0  0
 31 33  1  0  0  0  0
 33 34  1  0  0  0  0
 15 10  1  0  0  0  0
  1 35  1  0  0  0  0
  1 36  1  0  0  0  0
  1 37  1  0  0  0  0
  2 38  1  0  0  0  0
  2 39  1  0  0  0  0
  3 40  1  0  0  0  0
  4 41  1  0  0  0  0
  4 42  1  0  0  0  0
  4 43  1  0  0  0  0
  5 44  1  0  0  0  0
  6 45  1  0  0  0  0
  6 46  1  0  0  0  0
  8 47  1  0  0  0  0
  9 48  1  0  0  0  0
  9 49  1  0  0  0  0
 11 50  1  0  0  0  0
 12 51  1  0  0  0  0
 13 52  1  0  0  0  0
 14 53  1  0  0  0  0
 15 54  1  0  0  0  0
 18 55  1  0  0  0  0
 19 56  1  0  0  0  0
 20 57  1  0  0  0  0
 20 58  1  0  0  0  0
 21 59  1  0  0  0  0
 21 60  1  0  0  0  0
 23 61  1  0  0  0  0
 23 62  1  0  0  0  0
 23 63  1  0  0  0  0
 29 64  1  0  0  0  0
 29 65  1  0  0  0  0
 30 66  1  0  0  0  0
 30 67  1  0  0  0  0
 31 68  1  0  0  0  0
 32 69  1  0  0  0  0
 32 70  1  0  0  0  0
 32 71  1  0  0  0  0
 33 72  1  0  0  0  0
 33 73  1  0  0  0  0
 34 74  1  0  0  0  0
M  CHG  3  28  -1  29   1  32   1
M  END
>  <docking-score>
-23.26

$$$$
1SA4_JAN_1
foFlexX   03192112153D 1   1.00000     0.00000     0
FlexX 4.5.0 fol007
 57 61  0  0  0  0            999 V2000
   14.7664  -75.9071    4.6469 C   0  0  0  0  0  0  0  0  0  0  0  0
   13.4872  -75.6699    5.3320 N   0  0  0  0  0  0  0  0  0  0  0  0
   12.5283  -76.6123    5.5637 C   0  0  0  0  0  0  0  0  0  0  0  0
   11.5362  -76.0277    6.1984 N   0  0  0  0  0  0  0  0  0  0  0  0
   11.8443  -74.7092    6.3809 C   0  0  0  0  0  0  0  0  0  0  0  0
   13.0734  -74.4752    5.8367 C   0  0  0  0  0  0  0  0  0  0  0  0
   13.8228  -73.1533    5.8091 C   0  0  2  0  0  0  0  0  0  0  0  0
   12.9943  -72.1248    6.4874 N   0  3  0  0  0  0  0  0  0  0  0  0
   14.0987  -72.6982    4.3567 C   0  0  0  0  0  0  0  0  0  0  0  0
   14.7663  -71.4976    4.1347 C   0  0  0  0  0  0  0  0  0  0  0  0
   15.0231  -71.0746    2.8347 C   0  0  0  0  0  0  0  0  0  0  0  0
   14.6043  -71.8646    1.7698 C   0  0  0  0  0  0  0  0  0  0  0  0
   14.9250  -71.3373    0.1000 Cl  0  0  0  0  0  0  0  0  0  0  0  0
   13.9373  -73.0648    1.9898 C   0  0  0  0  0  0  0  0  0  0  0  0
   13.6811  -73.4868    3.2902 C   0  0  0  0  0  0  0  0  0  0  0  0
   15.1678  -73.3138    6.5589 C   0  0  0  0  0  0  0  0  0  0  0  0
   16.0115  -72.2202    6.6970 C   0  0  0  0  0  0  0  0  0  0  0  0
   17.2058  -72.4146    7.3780 C   0  0  0  0  0  0  0  0  0  0  0  0
   17.5454  -73.6577    7.9025 C   0  0  0  0  0  0  0  0  0  0  0  0
   16.6771  -74.7289    7.7452 C   0  0  0  0  0  0  0  0  0  0  0  0
   15.4738  -74.5667    7.0681 C   0  0  0  0  0  0  0  0  0  0  0  0
   17.0360  -76.0285    8.2875 C   0  0  0  0  0  0  0  0  0  0  0  0
   16.1629  -77.1785    8.1405 C   0  0  0  0  0  0  0  0  0  0  0  0
   16.2988  -78.0007    7.0269 C   0  0  0  0  0  0  0  0  0  0  0  0
   15.4578  -79.1010    6.8938 C   0  0  0  0  0  0  0  0  0  0  0  0
   14.4923  -79.3830    7.8544 C   0  0  0  0  0  0  0  0  0  0  0  0
   14.3745  -78.5469    8.9598 C   0  0  0  0  0  0  0  0  0  0  0  0
   13.1445  -78.8900   10.1998 Cl  0  0  0  0  0  0  0  0  0  0  0  0
   15.2041  -77.4410    9.1132 C   0  0  0  0  0  0  0  0  0  0  0  0
   18.1683  -76.2330    8.9358 C   0  0  0  0  0  0  0  0  0  0  0  0
   19.0863  -75.1244    9.1136 C   0  0  0  0  0  0  0  0  0  0  0  0
   20.1324  -75.3132    9.7135 O   0  0  0  0  0  0  0  0  0  0  0  0
   18.7467  -73.8691    8.5914 N   0  0  0  0  0  0  0  0  0  0  0  0
   19.7152  -72.7788    8.7960 C   0  0  0  0  0  0  0  0  0  0  0  0
   15.2872  -75.0543    4.6084 H   0  0  0  0  0  0  0  0  0  0  0  0
   15.2906  -76.5954    5.1485 H   0  0  0  0  0  0  0  0  0  0  0  0
   14.5915  -76.2331    3.7178 H   0  0  0  0  0  0  0  0  0  0  0  0
   12.5721  -77.5755    5.2982 H   0  0  0  0  0  0  0  0  0  0  0  0
   11.2672  -74.0310    6.8359 H   0  0  0  0  0  0  0  0  0  0  0  0
   13.4904  -71.7652    7.2778 H   0  0  0  0  0  0  0  0  0  0  0  0
   12.7990  -71.3800    5.8494 H   0  0  0  0  0  0  0  0  0  0  0  0
   12.1354  -72.5365    6.7921 H   0  0  0  0  0  0  0  0  0  0  0  0
   15.0615  -70.9389    4.9097 H   0  0  0  0  0  0  0  0  0  0  0  0
   15.5029  -70.2132    2.6680 H   0  0  0  0  0  0  0  0  0  0  0  0
   13.6424  -73.6234    1.2146 H   0  0  0  0  0  0  0  0  0  0  0  0
   13.2016  -74.3485    3.4564 H   0  0  0  0  0  0  0  0  0  0  0  0
   15.7684  -71.3264    6.3202 H   0  0  0  0  0  0  0  0  0  0  0  0
   17.8345  -71.6457    7.4938 H   0  0  0  0  0  0  0  0  0  0  0  0
   14.8443  -75.3349    6.9511 H   0  0  0  0  0  0  0  0  0  0  0  0
   16.9908  -77.8039    6.3324 H   0  0  0  0  0  0  0  0  0  0  0  0
   15.5487  -79.6974    6.0962 H   0  0  0  0  0  0  0  0  0  0  0  0
   13.8914  -80.1757    7.7518 H   0  0  0  0  0  0  0  0  0  0  0  0
   15.1126  -76.8440    9.9103 H   0  0  0  0  0  0  0  0  0  0  0  0
   18.3892  -77.1383    9.2985 H   0  0  0  0  0  0  0  0  0  0  0  0
   19.3656  -71.9398    8.3792 H   0  0  0  0  0  0  0  0  0  0  0  0
   19.8506  -72.6328    9.7760 H   0  0  0  0  0  0  0  0  0  0  0  0
   20.5871  -73.0235    8.3718 H   0  0  0  0  0  0  0  0  0  0  0  0
  1  2  1  0  0  0  0
  2  3  1  0  0  0  0
  3  4  2  0  0  0  0
  4  5  1  0  0  0  0
  5  6  2  0  0  0  0
  6  7  1  0  0  0  0
  7  8  1  0  0  0  0
  7  9  1  0  0  0  0
  9 10  2  0  0  0  0
 10 11  1  0  0  0  0
 11 12  2  0  0  0  0
 12 13  1  0  0  0  0
 12 14  1  0  0  0  0
 14 15  2  0  0  0  0
  7 16  1  0  0  0  0
 16 17  2  0  0  0  0
 17 18  1  0  0  0  0
 18 19  2  0  0  0  0
 19 20  1  0  0  0  0
 20 21  2  0  0  0  0
 20 22  1  0  0  0  0
 22 23  1  0  0  0  0
 23 24  2  0  0  0  0
 24 25  1  0  0  0  0
 25 26  2  0  0  0  0
 26 27  1  0  0  0  0
 27 28  1  0  0  0  0
 27 29  2  0  0  0  0
 22 30  2  0  0  0  0
 30 31  1  0  0  0  0
 31 32  2  0  0  0  0
 31 33  1  0  0  0  0
 33 34  1  0  0  0  0
  6  2  1  0  0  0  0
 15  9  1  0  0  0  0
 21 16  1  0  0  0  0
 29 23  1  0  0  0  0
 33 19  1  0  0  0  0
  1 35  1  0  0  0  0
  1 36  1  0  0  0  0
  1 37  1  0  0  0  0
  3 38  1  0  0  0  0
  5 39  1  0  0  0  0
  8 40  1  0  0  0  0
  8 41  1  0  0  0  0
  8 42  1  0  0  0  0
 10 43  1  0  0  0  0
 11 44  1  0  0  0  0
 14 45  1  0  0  0  0
 15 46  1  0  0  0  0
 17 47  1  0  0  0  0
 18 48  1  0  0  0  0
 21 49  1  0  0  0  0
 24 50  1  0  0  0  0
 25 51  1  0  0  0  0
 26 52  1  0  0  0  0
 29 53  1  0  0  0  0
 30 54  1  0  0  0  0
 34 55  1  0  0  0  0
 34 56  1  0  0  0  0
 34 57  1  0  0  0  0
M  CHG  1   8   1
M  END
>  <docking-score>
-26.39

$$$$
1SA4_JAN_2
foFlexX   03192112153D 1   1.00000     0.00000     0
FlexX 4.5.0 fol007
 57 61  0  0  0  0            999 V2000
   14.6937  -75.8601    4.6720 C   0  0  0  0  0  0  0  0  0  0  0  0
   13.4048  -75.6117    5.3346 N   0  0  0  0  0  0  0  0  0  0  0  0
   12.4268  -76.5419    5.5341 C   0  0  0  0  0  0  0  0  0  0  0  0
   11.4313  -75.9501    6.1568 N   0  0  0  0  0  0  0  0  0  0  0  0
   11.7562  -74.6392    6.3635 C   0  0  0  0  0  0  0  0  0  0  0  0
   12.9996  -74.4175    5.8473 C   0  0  0  0  0  0  0  0  0  0  0  0
   13.7700  -73.1074    5.8527 C   0  0  2  0  0  0  0  0  0  0  0  0
   12.9441  -72.0751    6.5285 N   0  3  0  0  0  0  0  0  0  0  0  0
   14.0823  -72.6374    4.4126 C   0  0  0  0  0  0  0  0  0  0  0  0
   13.6666  -73.4162    3.3370 C   0  0  0  0  0  0  0  0  0  0  0  0
   13.9386  -73.0071    2.0357 C   0  0  0  0  0  0  0  0  0  0  0  0
   14.6279  -71.8172    1.8295 C   0  0  0  0  0  0  0  0  0  0  0  0
   14.9841  -71.2797    0.1703 Cl  0  0  0  0  0  0  0  0  0  0  0  0
   15.0438  -71.0374    2.9031 C   0  0  0  0  0  0  0  0  0  0  0  0
   14.7712  -71.4474    4.2040 C   0  0  0  0  0  0  0  0  0  0  0  0
   15.0969  -73.2994    6.6271 C   0  0  0  0  0  0  0  0  0  0  0  0
   15.9546  -72.2213    6.7970 C   0  0  0  0  0  0  0  0  0  0  0  0
   17.1317  -72.4438    7.4990 C   0  0  0  0  0  0  0  0  0  0  0  0
   17.4412  -73.6990    8.0131 C   0  0  0  0  0  0  0  0  0  0  0  0
   16.5595  -74.7541    7.8238 C   0  0  0  0  0  0  0  0  0  0  0  0
   15.3729  -74.5637    7.1250 C   0  0  0  0  0  0  0  0  0  0  0  0
   16.8871  -76.0663    8.3553 C   0  0  0  0  0  0  0  0  0  0  0  0
   15.9992  -77.2003    8.1751 C   0  0  0  0  0  0  0  0  0  0  0  0
   16.1448  -78.0095    7.0533 C   0  0  0  0  0  0  0  0  0  0  0  0
   15.2895  -79.0944    6.8882 C   0  0  0  0  0  0  0  0  0  0  0  0
   14.3005  -79.3739    7.8254 C   0  0  0  0  0  0  0  0  0  0  0  0
   14.1735  -78.5509    8.9396 C   0  0  0  0  0  0  0  0  0  0  0  0
   12.9134  -78.8909   10.1499 Cl  0  0  0  0  0  0  0  0  0  0  0  0
   15.0170  -77.4604    9.1248 C   0  0  0  0  0  0  0  0  0  0  0  0
   18.0026  -76.2975    9.0233 C   0  0  0  0  0  0  0  0  0  0  0  0
   18.9341  -75.2062    9.2346 C   0  0  0  0  0  0  0  0  0  0  0  0
   19.9648  -75.4195    9.8526 O   0  0  0  0  0  0  0  0  0  0  0  0
   18.6248  -73.9387    8.7229 N   0  0  0  0  0  0  0  0  0  0  0  0
   19.6059  -72.8668    8.9618 C   0  0  0  0  0  0  0  0  0  0  0  0
   15.2284  -75.0152    4.6556 H   0  0  0  0  0  0  0  0  0  0  0  0
   15.1968  -76.5633    5.1745 H   0  0  0  0  0  0  0  0  0  0  0  0
   14.5326  -76.1708    3.7352 H   0  0  0  0  0  0  0  0  0  0  0  0
   12.4609  -77.5019    5.2564 H   0  0  0  0  0  0  0  0  0  0  0  0
   11.1807  -73.9581    6.8161 H   0  0  0  0  0  0  0  0  0  0  0  0
   13.4296  -71.7341    7.3334 H   0  0  0  0  0  0  0  0  0  0  0  0
   12.7734  -71.3188    5.8969 H   0  0  0  0  0  0  0  0  0  0  0  0
   12.0729  -72.4771    6.8102 H   0  0  0  0  0  0  0  0  0  0  0  0
   13.1722  -74.2701    3.4996 H   0  0  0  0  0  0  0  0  0  0  0  0
   13.6423  -73.5618    1.2582 H   0  0  0  0  0  0  0  0  0  0  0  0
   15.5380  -70.1835    2.7403 H   0  0  0  0  0  0  0  0  0  0  0  0
   15.0674  -70.8923    4.9812 H   0  0  0  0  0  0  0  0  0  0  0  0
   15.7332  -71.3187    6.4278 H   0  0  0  0  0  0  0  0  0  0  0  0
   17.7699  -71.6865    7.6379 H   0  0  0  0  0  0  0  0  0  0  0  0
   14.7340  -75.3201    6.9849 H   0  0  0  0  0  0  0  0  0  0  0  0
   16.8536  -77.8145    6.3755 H   0  0  0  0  0  0  0  0  0  0  0  0
   15.3872  -79.6814    6.0846 H   0  0  0  0  0  0  0  0  0  0  0  0
   13.6895  -80.1555    7.7000 H   0  0  0  0  0  0  0  0  0  0  0  0
   14.9187  -76.8729    9.9280 H   0  0  0  0  0  0  0  0  0  0  0  0
   18.2020  -77.2110    9.3779 H   0  0  0  0  0  0  0  0  0  0  0  0
   19.2779  -72.0168    8.5497 H   0  0  0  0  0  0  0  0  0  0  0  0
   19.7237  -72.7361    9.9462 H   0  0  0  0  0  0  0  0  0  0  0  0
   20.4823  -73.1196    8.5518 H   0  0  0  0  0  0  0  0  0  0  0  0
  1  2  1  0  0  0  0
  2  3  1  0  0  0  0
  3  4  2  0  0  0  0
  4  5  1  0  0  0  0
  5  6  2  0  0  0  0
  6  7  1  0  0  0  0
  7  8  1  0  0  0  0
  7  9  1  0  0  0  0
  9 10  2  0  0  0  0
 10 11  1  0  0  0  0
 11 12  2  0  0  0  0
 12 13  1  0  0  0  0
 12 14  1  0  0  0  0
 14 15  2  0  0  0  0
  7 16  1  0  0  0  0
 16 17  2  0  0  0  0
 17 18  1  0  0  0  0
 18 19  2  0  0  0  0
 19 20  1  0  0  0  0
 20 21  2  0  0  0  0
 20 22  1  0  0  0  0
 22 23  1  0  0  0  0
 23 24  2  0  0  0  0
 24 25  1  0  0  0  0
 25 26  2  0  0  0  0
 26 27  1  0  0  0  0
 27 28  1  0  0  0  0
 27 29  2  0  0  0  0
 22 30  2  0  0  0  0
 30 31  1  0  0  0  0
 31 32  2  0  0  0  0
 31 33  1  0  0  0  0
 33 34  1  0  0  0  0
  6  2  1  0  0  0  0
 15  9  1  0  0  0  0
 21 16  1  0  0  0  0
 29 23  1  0  0  0  0
 33 19  1  0  0  0  0
  1 35  1  0  0  0  0
  1 36  1  0  0  0  0
  1 37  1  0  0  0  0
  3 38  1  0  0  0  0
  5 39  1  0  0  0  0
  8 40  1  0  0  0  0
  8 41  1  0  0  0  0
  8 42  1  0  0  0  0
 10 43  1  0  0  0  0
 11 44  1  0  0  0  0
 14 45  1  0  0  0  0
 15 46  1  0  0  0  0
 17 47  1  0  0  0  0
 18 48  1  0  0  0  0
 21 49  1  0  0  0  0
 24 50  1  0  0  0  0
 25 51  1  0  0  0  0
 26 52  1  0  0  0  0
 29 53  1  0  0  0  0
 30 54  1  0  0  0  0
 34 55  1  0  0  0  0
 34 56  1  0  0  0  0
 34 57  1  0  0  0  0
M  CHG  1   8   1
M  END
>  <docking-score>
-25.71

$$$$
1SA4_JAN_3
foFlexX   03192112153D 1   1.00000     0.00000     0
FlexX 4.5.0 fol007
 57 61  0  0  0  0            999 V2000
   14.7197  -75.9423    4.7208 C   0  0  0  0  0  0  0  0  0  0  0  0
   13.4480  -75.6191    5.3843 N   0  0  0  0  0  0  0  0  0  0  0  0
   12.4539  -76.5107    5.6641 C   0  0  0  0  0  0  0  0  0  0  0  0
   11.4821  -75.8545    6.2591 N   0  0  0  0  0  0  0  0  0  0  0  0
   11.8385  -74.5400    6.3679 C   0  0  0  0  0  0  0  0  0  0  0  0
   13.0772  -74.3831    5.8179 C   0  0  0  0  0  0  0  0  0  0  0  0
   13.8754  -73.0935    5.7190 C   0  0  2  0  0  0  0  0  0  0  0  0
   13.0835  -71.9981    6.3332 N   0  3  0  0  0  0  0  0  0  0  0  0
   14.1729  -72.7327    4.2446 C   0  0  0  0  0  0  0  0  0  0  0  0
   14.8854  -71.5723    3.9581 C   0  0  0  0  0  0  0  0  0  0  0  0
   15.1621  -71.2340    2.6376 C   0  0  0  0  0  0  0  0  0  0  0  0
   14.7177  -72.0676    1.6172 C   0  0  0  0  0  0  0  0  0  0  0  0
   15.0633  -71.6488   -0.0781 Cl  0  0  0  0  0  0  0  0  0  0  0  0
   14.0057  -73.2277    1.9016 C   0  0  0  0  0  0  0  0  0  0  0  0
   13.7297  -73.5650    3.2225 C   0  0  0  0  0  0  0  0  0  0  0  0
   15.2111  -73.2606    6.4841 C   0  0  0  0  0  0  0  0  0  0  0  0
   16.0944  -72.1929    6.5642 C   0  0  0  0  0  0  0  0  0  0  0  0
   17.2784  -72.3921    7.2616 C   0  0  0  0  0  0  0  0  0  0  0  0
   17.5698  -73.6149    7.8580 C   0  0  0  0  0  0  0  0  0  0  0  0
   16.6626  -74.6604    7.7572 C   0  0  0  0  0  0  0  0  0  0  0  0
   15.4685  -74.4928    7.0655 C   0  0  0  0  0  0  0  0  0  0  0  0
   16.9712  -75.9392    8.3746 C   0  0  0  0  0  0  0  0  0  0  0  0
   16.0564  -77.0628    8.2887 C   0  0  0  0  0  0  0  0  0  0  0  0
   15.0871  -77.2304    9.2720 C   0  0  0  0  0  0  0  0  0  0  0  0
   14.2142  -78.3101    9.1821 C   0  0  0  0  0  0  0  0  0  0  0  0
   14.3015  -79.2139    8.1285 C   0  0  0  0  0  0  0  0  0  0  0  0
   15.2787  -79.0263    7.1565 C   0  0  0  0  0  0  0  0  0  0  0  0
   15.4076  -80.1724    5.8007 Cl  0  0  0  0  0  0  0  0  0  0  0  0
   16.1624  -77.9543    7.2265 C   0  0  0  0  0  0  0  0  0  0  0  0
   18.0929  -76.1481    9.0397 C   0  0  0  0  0  0  0  0  0  0  0  0
   19.0509  -75.0659    9.1590 C   0  0  0  0  0  0  0  0  0  0  0  0
   20.0873  -75.2586    9.7744 O   0  0  0  0  0  0  0  0  0  0  0  0
   18.7600  -73.8308    8.5642 N   0  0  0  0  0  0  0  0  0  0  0  0
   19.7678  -72.7671    8.7117 C   0  0  0  0  0  0  0  0  0  0  0  0
   15.2720  -75.1129    4.6366 H   0  0  0  0  0  0  0  0  0  0  0  0
   15.2162  -76.6197    5.2636 H   0  0  0  0  0  0  0  0  0  0  0  0
   14.5359  -76.3141    3.8109 H   0  0  0  0  0  0  0  0  0  0  0  0
   12.4627  -77.4884    5.4542 H   0  0  0  0  0  0  0  0  0  0  0  0
   11.2855  -73.8161    6.7804 H   0  0  0  0  0  0  0  0  0  0  0  0
   13.5900  -71.6125    7.1044 H   0  0  0  0  0  0  0  0  0  0  0  0
   12.9183  -71.2842    5.6526 H   0  0  0  0  0  0  0  0  0  0  0  0
   12.2089  -72.3596    6.6561 H   0  0  0  0  0  0  0  0  0  0  0  0
   15.1986  -70.9815    4.7017 H   0  0  0  0  0  0  0  0  0  0  0  0
   15.6742  -70.4019    2.4247 H   0  0  0  0  0  0  0  0  0  0  0  0
   13.6928  -73.8184    1.1579 H   0  0  0  0  0  0  0  0  0  0  0  0
   13.2179  -74.3974    3.4349 H   0  0  0  0  0  0  0  0  0  0  0  0
   15.8860  -71.3136    6.1358 H   0  0  0  0  0  0  0  0  0  0  0  0
   17.9349  -71.6415    7.3368 H   0  0  0  0  0  0  0  0  0  0  0  0
   14.8113  -75.2426    6.9890 H   0  0  0  0  0  0  0  0  0  0  0  0
   15.0186  -76.5845   10.0324 H   0  0  0  0  0  0  0  0  0  0  0  0
   13.5144  -78.4382    9.8848 H   0  0  0  0  0  0  0  0  0  0  0  0
   13.6706  -79.9876    8.0706 H   0  0  0  0  0  0  0  0  0  0  0  0
   16.8629  -77.8268    6.5243 H   0  0  0  0  0  0  0  0  0  0  0  0
   18.2788  -77.0388    9.4546 H   0  0  0  0  0  0  0  0  0  0  0  0
   19.4510  -71.9409    8.2458 H   0  0  0  0  0  0  0  0  0  0  0  0
   19.9053  -72.5705    9.6825 H   0  0  0  0  0  0  0  0  0  0  0  0
   20.6314  -73.0677    8.3069 H   0  0  0  0  0  0  0  0  0  0  0  0
  1  2  1  0  0  0  0
  2  3  1  0  0  0  0
  3  4  2  0  0  0  0
  4  5  1  0  0  0  0
  5  6  2  0  0  0  0
  6  7  1  0  0  0  0
  7  8  1  0  0  0  0
  7  9  1  0  0  0  0
  9 10  2  0  0  0  0
 10 11  1  0  0  0  0
 11 12  2  0  0  0  0
 12 13  1  0  0  0  0
 12 14  1  0  0  0  0
 14 15  2  0  0  0  0
  7 16  1  0  0  0  0
 16 17  2  0  0  0  0
 17 18  1  0  0  0  0
 18 19  2  0  0  0  0
 19 20  1  0  0  0  0
 20 21  2  0  0  0  0
 20 22  1  0  0  0  0
 22 23  1  0  0  0  0
 23 24  2  0  0  0  0
 24 25  1  0  0  0  0
 25 26  2  0  0  0  0
 26 27  1  0  0  0  0
 27 28  1  0  0  0  0
 27 29  2  0  0  0  0
 22 30  2  0  0  0  0
 30 31  1  0  0  0  0
 31 32  2  0  0  0  0
 31 33  1  0  0  0  0
 33 34  1  0  0  0  0
  6  2  1  0  0  0  0
 15  9  1  0  0  0  0
 21 16  1  0  0  0  0
 29 23  1  0  0  0  0
 33 19  1  0  0  0  0
  1 35  1  0  0  0  0
  1 36  1  0  0  0  0
  1 37  1  0  0  0  0
  3 38  1  0  0  0  0
  5 39  1  0  0  0  0
  8 40  1  0  0  0  0
  8 41  1  0  0  0  0
  8 42  1  0  0  0  0
 10 43  1  0  0  0  0
 11 44  1  0  0  0  0
 14 45  1  0  0  0  0
 15 46  1  0  0  0  0
 17 47  1  0  0  0  0
 18 48  1  0  0  0  0
 21 49  1  0  0  0  0
 24 50  1  0  0  0  0
 25 51  1  0  0  0  0
 26 52  1  0  0  0  0
 29 53  1  0  0  0  0
 30 54  1  0  0  0  0
 34 55  1  0  0  0  0
 34 56  1  0  0  0  0
 34 57  1  0  0  0  0
M  CHG  1   8   1
M  END
>  <docking-score>
-24.86

$$$$
1MZC_BNE_1
foFlexX   03192112153D 1   1.00000     0.00000     0
FlexX 4.5.0 fol007
 69 72  0  0  0  0            999 V2000
   16.2415  -69.3285    5.1209 C   0  0  0  0  0  0  0  0  0  0  0  0
   16.0186  -70.7908    4.7119 C   0  0  0  0  0  0  0  0  0  0  0  0
   14.6274  -71.3381    4.9921 C   0  0  2  0  0  0  0  0  0  0  0  0
   13.6494  -70.1789    4.8996 C   0  0  0  0  0  0  0  0  0  0  0  0
   13.1472  -69.5993    6.0602 C   0  0  0  0  0  0  0  0  0  0  0  0
   12.2530  -68.5392    5.9516 C   0  0  0  0  0  0  0  0  0  0  0  0
   11.8596  -68.0579    4.7073 C   0  0  0  0  0  0  0  0  0  0  0  0
   12.3738  -68.6522    3.5594 C   0  0  0  0  0  0  0  0  0  0  0  0
   11.9818  -68.1732    2.3002 O   0  0  0  0  0  0  0  0  0  0  0  0
   12.8337  -67.6717    1.3809 C   0  0  0  0  0  0  0  0  0  0  0  0
   13.4038  -68.5396    0.4555 C   0  0  0  0  0  0  0  0  0  0  0  0
   14.2827  -68.0300   -0.4945 C   0  0  0  0  0  0  0  0  0  0  0  0
   14.9191  -68.9805   -1.5225 C   0  0  2  0  0  0  0  0  0  0  0  0
   16.2960  -68.3843   -1.8989 C   0  0  0  0  0  0  0  0  0  0  0  0
   14.1106  -69.0954   -2.7543 N   0  3  0  0  0  0  0  0  0  0  0  0
   15.0737  -70.3835   -0.9137 C   0  0  0  0  0  0  0  0  0  0  0  0
   14.5134  -71.5295   -1.3967 C   0  0  0  0  0  0  0  0  0  0  0  0
   14.9009  -72.5407   -0.5684 N   0  0  0  0  0  0  0  0  0  0  0  0
   15.6633  -72.0392    0.3795 C   0  0  0  0  0  0  0  0  0  0  0  0
   15.7982  -70.6987    0.1923 N   0  0  0  0  0  0  0  0  0  0  0  0
   16.5697  -69.7669    1.0283 C   0  0  0  0  0  0  0  0  0  0  0  0
   14.5944  -66.6746   -0.5281 C   0  0  0  0  0  0  0  0  0  0  0  0
   14.0183  -65.8161    0.4023 C   0  0  0  0  0  0  0  0  0  0  0  0
   13.1377  -66.3145    1.3568 C   0  0  0  0  0  0  0  0  0  0  0  0
   12.5080  -65.3763    2.3736 C   0  0  0  0  0  0  0  0  0  0  0  0
   12.0293  -64.6630    3.1490 N   0  0  0  0  0  0  0  0  0  0  0  0
   13.2692  -69.7131    3.6450 C   0  0  0  0  0  0  0  0  0  0  0  0
   14.5275  -71.8568    6.4213 C   0  0  0  0  0  0  0  0  0  0  0  0
   15.0402  -73.2796    6.6195 C   0  0  0  0  0  0  0  0  0  0  0  0
   13.9313  -74.2954    6.3981 C   0  0  0  0  0  0  0  0  0  0  0  0
   12.8991  -73.6609    5.4798 C   0  0  0  0  0  0  0  0  0  0  0  0
   13.4458  -73.4608    4.1287 N   0  0  0  0  0  0  0  0  0  0  0  0
   13.1258  -74.4212    3.0605 C   0  0  0  0  0  0  0  0  0  0  0  0
   14.2665  -72.3434    3.9033 C   0  0  0  0  0  0  0  0  0  0  0  0
   14.7122  -72.1779    2.7820 O   0  0  0  0  0  0  0  0  0  0  0  0
   16.0905  -69.2308    6.1046 H   0  0  0  0  0  0  0  0  0  0  0  0
   17.1788  -69.0595    4.8992 H   0  0  0  0  0  0  0  0  0  0  0  0
   15.6004  -68.7423    4.6255 H   0  0  0  0  0  0  0  0  0  0  0  0
   16.6785  -71.3547    5.2084 H   0  0  0  0  0  0  0  0  0  0  0  0
   16.1884  -70.8663    3.7293 H   0  0  0  0  0  0  0  0  0  0  0  0
   13.4248  -69.9394    6.9587 H   0  0  0  0  0  0  0  0  0  0  0  0
   11.8873  -68.1166    6.7809 H   0  0  0  0  0  0  0  0  0  0  0  0
   11.2163  -67.2954    4.6388 H   0  0  0  0  0  0  0  0  0  0  0  0
   13.1850  -69.5153    0.4729 H   0  0  0  0  0  0  0  0  0  0  0  0
   16.1674  -67.4819   -2.3101 H   0  0  0  0  0  0  0  0  0  0  0  0
   16.8584  -68.2988   -1.0765 H   0  0  0  0  0  0  0  0  0  0  0  0
   16.7524  -68.9869   -2.5536 H   0  0  0  0  0  0  0  0  0  0  0  0
   14.4000  -68.3975   -3.4094 H   0  0  0  0  0  0  0  0  0  0  0  0
   14.2402  -70.0026   -3.1547 H   0  0  0  0  0  0  0  0  0  0  0  0
   13.1444  -68.9641   -2.5324 H   0  0  0  0  0  0  0  0  0  0  0  0
   13.9297  -71.6121   -2.2044 H   0  0  0  0  0  0  0  0  0  0  0  0
   16.0795  -72.5628    1.1230 H   0  0  0  0  0  0  0  0  0  0  0  0
   16.4857  -68.8409    0.6600 H   0  0  0  0  0  0  0  0  0  0  0  0
   16.2162  -69.7870    1.9635 H   0  0  0  0  0  0  0  0  0  0  0  0
   17.5320  -70.0389    1.0298 H   0  0  0  0  0  0  0  0  0  0  0  0
   15.2279  -66.3203   -1.2159 H   0  0  0  0  0  0  0  0  0  0  0  0
   14.2372  -64.8405    0.3849 H   0  0  0  0  0  0  0  0  0  0  0  0
   13.6349  -70.1355    2.8157 H   0  0  0  0  0  0  0  0  0  0  0  0
   13.5662  -71.8310    6.6957 H   0  0  0  0  0  0  0  0  0  0  0  0
   15.0590  -71.2490    7.0112 H   0  0  0  0  0  0  0  0  0  0  0  0
   15.3888  -73.3744    7.5520 H   0  0  0  0  0  0  0  0  0  0  0  0
   15.7786  -73.4546    5.9682 H   0  0  0  0  0  0  0  0  0  0  0  0
   14.3047  -75.1197    5.9725 H   0  0  0  0  0  0  0  0  0  0  0  0
   13.5085  -74.5339    7.2723 H   0  0  0  0  0  0  0  0  0  0  0  0
   12.0998  -74.2593    5.4236 H   0  0  0  0  0  0  0  0  0  0  0  0
   12.6267  -72.7755    5.8566 H   0  0  0  0  0  0  0  0  0  0  0  0
   13.8115  -75.1489    3.0501 H   0  0  0  0  0  0  0  0  0  0  0  0
   12.2226  -74.8166    3.2274 H   0  0  0  0  0  0  0  0  0  0  0  0
   13.1257  -73.9506    2.1781 H   0  0  0  0  0  0  0  0  0  0  0  0
  1  2  1  0  0  0  0
  2  3  1  0  0  0  0
  3  4  1  0  0  0  0
  4  5  2  0  0  0  0
  5  6  1  0  0  0  0
  6  7  2  0  0  0  0
  7  8  1  0  0  0  0
  8  9  1  0  0  0  0
  9 10  1  0  0  0  0
 10 11  2  0  0  0  0
 11 12  1  0  0  0  0
 12 13  1  0  0  0  0
 13 14  1  0  0  0  0
 13 15  1  0  0  0  0
 13 16  1  0  0  0  0
 16 17  2  0  0  0  0
 17 18  1  0  0  0  0
 18 19  2  0  0  0  0
 19 20  1  0  0  0  0
 20 21  1  0  0  0  0
 12 22  2  0  0  0  0
 22 23  1  0  0  0  0
 23 24  2  0  0  0  0
 24 25  1  0  0  0  0
 25 26  3  0  0  0  0
  8 27  2  0  0  0  0
  3 28  1  0  0  0  0
 28 29  1  0  0  0  0
 29 30  1  0  0  0  0
 30 31  1  0  0  0  0
 31 32  1  0  0  0  0
 32 33  1  0  0  0  0
 32 34  1  0  0  0  0
 34 35  2  0  0  0  0
 34  3  1  0  0  0  0
 27  4  1  0  0  0  0
 24 10  1  0  0  0  0
 20 16  1  0  0  0  0
  1 36  1  0  0  0  0
  1 37  1  0  0  0  0
  1 38  1  0  0  0  0
  2 39  1  0  0  0  0
  2 40  1  0  0  0  0
  5 41  1  0  0  0  0
  6 42  1  0  0  0  0
  7 43  1  0  0  0  0
 11 44  1  0  0  0  0
 14 45  1  0  0  0  0
 14 46  1  0  0  0  0
 14 47  1  0  0  0  0
 15 48  1  0  0  0  0
 15 49  1  0  0  0  0
 15 50  1  0  0  0  0
 17 51  1  0  0  0  0
 19 52  1  0  0  0  0
 21 53  1  0  0  0  0
 21 54  1  0  0  0  0
 21 55  1  0  0  0  0
 22 56  1  0  0  0  0
 23 57  1  0  0  0  0
 27 58  1  0  0  0  0
 28 59  1  0  0  0  0
 28 60  1  0  0  0  0
 29 61  1  0  0  0  0
 29 62  1  0  0  0  0
 30 63  1  0  0  0  0
 30 64  1  0  0  0  0
 31 65  1  0  0  0  0
 31 66  1  0  0  0  0
 33 67  1  0  0  0  0
 33 68  1  0  0  0  0
 33 69  1  0  0  0  0
M  CHG  1  15   1
M  END
>  <docking-score>
-25.49

$$$$
1MZC_BNE_2
foFlexX   03192112153D 1   1.00000     0.00000     0
FlexX 4.5.0 fol007
 69 72  0  0  0  0            999 V2000
   12.3581  -73.9846    6.2868 C   0  0  0  0  0  0  0  0  0  0  0  0
   12.1340  -72.7333    5.4269 C   0  0  0  0  0  0  0  0  0  0  0  0
   13.3968  -71.9845    5.0294 C   0  0  2  0  0  0  0  0  0  0  0  0
   13.0353  -70.5156    4.8863 C   0  0  0  0  0  0  0  0  0  0  0  0
   13.0753  -69.6789    5.9969 C   0  0  0  0  0  0  0  0  0  0  0  0
   12.7401  -68.3376    5.8427 C   0  0  0  0  0  0  0  0  0  0  0  0
   12.3690  -67.8297    4.6021 C   0  0  0  0  0  0  0  0  0  0  0  0
   12.3355  -68.6839    3.5047 C   0  0  0  0  0  0  0  0  0  0  0  0
   11.9617  -68.1798    2.2497 O   0  0  0  0  0  0  0  0  0  0  0  0
   12.8276  -67.6658    1.3505 C   0  0  0  0  0  0  0  0  0  0  0  0
   13.4050  -68.5195    0.4165 C   0  0  0  0  0  0  0  0  0  0  0  0
   14.2983  -67.9970   -0.5129 C   0  0  0  0  0  0  0  0  0  0  0  0
   14.9430  -68.9316   -1.5502 C   0  0  2  0  0  0  0  0  0  0  0  0
   16.3274  -68.3356   -1.8984 C   0  0  0  0  0  0  0  0  0  0  0  0
   14.1494  -69.0198   -2.7940 N   0  3  0  0  0  0  0  0  0  0  0  0
   15.0831  -70.3463   -0.9656 C   0  0  0  0  0  0  0  0  0  0  0  0
   14.5233  -71.4803   -1.4766 C   0  0  0  0  0  0  0  0  0  0  0  0
   14.8955  -72.5086   -0.6623 N   0  0  0  0  0  0  0  0  0  0  0  0
   15.6483  -72.0285    0.3042 C   0  0  0  0  0  0  0  0  0  0  0  0
   15.7920  -70.6855    0.1434 N   0  0  0  0  0  0  0  0  0  0  0  0
   16.5575  -69.7731    1.0060 C   0  0  0  0  0  0  0  0  0  0  0  0
   14.6170  -66.6428   -0.5176 C   0  0  0  0  0  0  0  0  0  0  0  0
   14.0334  -65.7985    0.4211 C   0  0  0  0  0  0  0  0  0  0  0  0
   13.1384  -66.3100    1.3553 C   0  0  0  0  0  0  0  0  0  0  0  0
   12.5005  -65.3874    2.3812 C   0  0  0  0  0  0  0  0  0  0  0  0
   12.0156  -64.6861    3.1636 N   0  0  0  0  0  0  0  0  0  0  0  0
   12.6668  -70.0283    3.6365 C   0  0  0  0  0  0  0  0  0  0  0  0
   13.8815  -72.4318    3.6558 C   0  0  0  0  0  0  0  0  0  0  0  0
   14.7305  -73.6989    3.6618 C   0  0  0  0  0  0  0  0  0  0  0  0
   16.2035  -73.3685    3.8401 C   0  0  0  0  0  0  0  0  0  0  0  0
   16.2941  -72.0305    4.5565 C   0  0  0  0  0  0  0  0  0  0  0  0
   15.8041  -72.1374    5.9395 N   0  0  0  0  0  0  0  0  0  0  0  0
   16.7639  -72.2710    7.0472 C   0  0  0  0  0  0  0  0  0  0  0  0
   14.4167  -72.1082    6.1566 C   0  0  0  0  0  0  0  0  0  0  0  0
   14.0153  -72.1908    7.3034 O   0  0  0  0  0  0  0  0  0  0  0  0
   12.8154  -73.7267    7.1379 H   0  0  0  0  0  0  0  0  0  0  0  0
   11.4764  -74.4070    6.4969 H   0  0  0  0  0  0  0  0  0  0  0  0
   12.9286  -74.6355    5.7858 H   0  0  0  0  0  0  0  0  0  0  0  0
   11.5510  -72.1047    5.9419 H   0  0  0  0  0  0  0  0  0  0  0  0
   11.6642  -73.0135    4.5898 H   0  0  0  0  0  0  0  0  0  0  0  0
   13.3409  -70.0361    6.8924 H   0  0  0  0  0  0  0  0  0  0  0  0
   12.7664  -67.7291    6.6358 H   0  0  0  0  0  0  0  0  0  0  0  0
   12.1297  -66.8641    4.5005 H   0  0  0  0  0  0  0  0  0  0  0  0
   13.1813  -69.4941    0.4131 H   0  0  0  0  0  0  0  0  0  0  0  0
   16.2083  -67.4251   -2.2944 H   0  0  0  0  0  0  0  0  0  0  0  0
   16.8797  -68.2681   -1.0675 H   0  0  0  0  0  0  0  0  0  0  0  0
   16.7890  -68.9284   -2.5583 H   0  0  0  0  0  0  0  0  0  0  0  0
   14.4505  -68.3114   -3.4324 H   0  0  0  0  0  0  0  0  0  0  0  0
   14.2797  -69.9200   -3.2094 H   0  0  0  0  0  0  0  0  0  0  0  0
   13.1812  -68.8876   -2.5817 H   0  0  0  0  0  0  0  0  0  0  0  0
   13.9494  -71.5452   -2.2929 H   0  0  0  0  0  0  0  0  0  0  0  0
   16.0525  -72.5678    1.0430 H   0  0  0  0  0  0  0  0  0  0  0  0
   16.4826  -68.8401    0.6539 H   0  0  0  0  0  0  0  0  0  0  0  0
   16.1921  -69.8086    1.9362 H   0  0  0  0  0  0  0  0  0  0  0  0
   17.5183  -70.0500    1.0145 H   0  0  0  0  0  0  0  0  0  0  0  0
   15.2608  -66.2791   -1.1908 H   0  0  0  0  0  0  0  0  0  0  0  0
   14.2571  -64.8239    0.4245 H   0  0  0  0  0  0  0  0  0  0  0  0
   12.6406  -70.6366    2.8432 H   0  0  0  0  0  0  0  0  0  0  0  0
   14.4279  -71.6925    3.2622 H   0  0  0  0  0  0  0  0  0  0  0  0
   13.0801  -72.5964    3.0809 H   0  0  0  0  0  0  0  0  0  0  0  0
   14.6062  -74.1797    2.7938 H   0  0  0  0  0  0  0  0  0  0  0  0
   14.4342  -74.2873    4.4141 H   0  0  0  0  0  0  0  0  0  0  0  0
   16.6479  -74.0782    4.3868 H   0  0  0  0  0  0  0  0  0  0  0  0
   16.6493  -73.3075    2.9471 H   0  0  0  0  0  0  0  0  0  0  0  0
   17.2481  -71.7310    4.5699 H   0  0  0  0  0  0  0  0  0  0  0  0
   15.7406  -71.3584    4.0647 H   0  0  0  0  0  0  0  0  0  0  0  0
   16.9482  -73.2396    7.2136 H   0  0  0  0  0  0  0  0  0  0  0  0
   17.6161  -71.8058    6.8078 H   0  0  0  0  0  0  0  0  0  0  0  0
   16.3795  -71.8582    7.8730 H   0  0  0  0  0  0  0  0  0  0  0  0
  1  2  1  0  0  0  0
  2  3  1  0  0  0  0
  3  4  1  0  0  0  0
  4  5  2  0  0  0  0
  5  6  1  0  0  0  0
  6  7  2  0  0  0  0
  7  8  1  0  0  0  0
  8  9  1  0  0  0  0
  9 10  1  0  0  0  0
 10 11  2  0  0  0  0
 11 12  1  0  0  0  0
 12 13  1  0  0  0  0
 13 14  1  0  0  0  0
 13 15  1  0  0  0  0
 13 16  1  0  0  0  0
 16 17  2  0  0  0  0
 17 18  1  0  0  0  0
 18 19  2  0  0  0  0
 19 20  1  0  0  0  0
 20 21  1  0  0  0  0
 12 22  2  0  0  0  0
 22 23  1  0  0  0  0
 23 24  2  0  0  0  0
 24 25  1  0  0  0  0
 25 26  3  0  0  0  0
  8 27  2  0  0  0  0
  3 28  1  0  0  0  0
 28 29  1  0  0  0  0
 29 30  1  0  0  0  0
 30 31  1  0  0  0  0
 31 32  1  0  0  0  0
 32 33  1  0  0  0  0
 32 34  1  0  0  0  0
 34 35  2  0  0  0  0
 34  3  1  0  0  0  0
 27  4  1  0  0  0  0
 24 10  1  0  0  0  0
 20 16  1  0  0  0  0
  1 36  1  0  0  0  0
  1 37  1  0  0  0  0
  1 38  1  0  0  0  0
  2 39  1  0  0  0  0
  2 40  1  0  0  0  0
  5 41  1  0  0  0  0
  6 42  1  0  0  0  0
  7 43  1  0  0  0  0
 11 44  1  0  0  0  0
 14 45  1  0  0  0  0
 14 46  1  0  0  0  0
 14 47  1  0  0  0  0
 15 48  1  0  0  0  0
 15 49  1  0  0  0  0
 15 50  1  0  0  0  0
 17 51  1  0  0  0  0
 19 52  1  0  0  0  0
 21 53  1  0  0  0  0
 21 54  1  0  0  0  0
 21 55  1  0  0  0  0
 22 56  1  0  0  0  0
 23 57  1  0  0  0  0
 27 58  1  0  0  0  0
 28 59  1  0  0  0  0
 28 60  1  0  0  0  0
 29 61  1  0  0  0  0
 29 62  1  0  0  0  0
 30 63  1  0  0  0  0
 30 64  1  0  0  0  0
 31 65  1  0  0  0  0
 31 66  1  0  0  0  0
 33 67  1  0  0  0  0
 33 68  1  0  0  0  0
 33 69  1  0  0  0  0
M  CHG  1  15   1
M  END
>  <docking-score>
-24.61

$$$$
1MZC_BNE_3
foFlexX   03192112153D 1   1.00000     0.00000     0
FlexX 4.5.0 fol007
 69 72  0  0  0  0            999 V2000
   16.2862  -72.8688    6.1124 C   0  0  0  0  0  0  0  0  0  0  0  0
   15.6278  -71.7671    5.2709 C   0  0  0  0  0  0  0  0  0  0  0  0
   14.1099  -71.8285    5.1947 C   0  0  2  0  0  0  0  0  0  0  0  0
   13.5994  -70.4071    5.0283 C   0  0  0  0  0  0  0  0  0  0  0  0
   13.6395  -69.5242    6.1025 C   0  0  0  0  0  0  0  0  0  0  0  0
   13.1666  -68.2277    5.9274 C   0  0  0  0  0  0  0  0  0  0  0  0
   12.6590  -67.8094    4.7018 C   0  0  0  0  0  0  0  0  0  0  0  0
   12.6279  -68.7085    3.6408 C   0  0  0  0  0  0  0  0  0  0  0  0
   12.1171  -68.2949    2.4012 O   0  0  0  0  0  0  0  0  0  0  0  0
   12.8617  -67.7408    1.4209 C   0  0  0  0  0  0  0  0  0  0  0  0
   13.4490  -68.5756    0.4760 C   0  0  0  0  0  0  0  0  0  0  0  0
   14.2178  -68.0117   -0.5368 C   0  0  0  0  0  0  0  0  0  0  0  0
   14.8721  -68.9251   -1.5869 C   0  0  2  0  0  0  0  0  0  0  0  0
   16.1637  -68.2179   -2.0607 C   0  0  0  0  0  0  0  0  0  0  0  0
   14.0023  -69.1393   -2.7625 N   0  3  0  0  0  0  0  0  0  0  0  0
   15.1898  -70.2946   -0.9654 C   0  0  0  0  0  0  0  0  0  0  0  0
   14.7060  -71.4965   -1.3920 C   0  0  0  0  0  0  0  0  0  0  0  0
   15.2335  -72.4503   -0.5730 N   0  0  0  0  0  0  0  0  0  0  0  0
   16.0051  -71.8617    0.3156 C   0  0  0  0  0  0  0  0  0  0  0  0
   16.0069  -70.5191    0.0973 N   0  0  0  0  0  0  0  0  0  0  0  0
   16.7419  -69.5038    0.8662 C   0  0  0  0  0  0  0  0  0  0  0  0
   14.4036  -66.6351   -0.6134 C   0  0  0  0  0  0  0  0  0  0  0  0
   13.8115  -65.8101    0.3371 C   0  0  0  0  0  0  0  0  0  0  0  0
   13.0402  -66.3629    1.3543 C   0  0  0  0  0  0  0  0  0  0  0  0
   12.3930  -65.4614    2.3930 C   0  0  0  0  0  0  0  0  0  0  0  0
   11.9011  -64.7759    3.1851 N   0  0  0  0  0  0  0  0  0  0  0  0
   13.0957  -70.0094    3.7939 C   0  0  0  0  0  0  0  0  0  0  0  0
   13.5221  -72.3333    6.5067 C   0  0  0  0  0  0  0  0  0  0  0  0
   13.4967  -73.8516    6.6506 C   0  0  0  0  0  0  0  0  0  0  0  0
   12.2062  -74.4312    6.0943 C   0  0  0  0  0  0  0  0  0  0  0  0
   11.6711  -73.4575    5.0566 C   0  0  0  0  0  0  0  0  0  0  0  0
   12.5507  -73.4046    3.8785 N   0  0  0  0  0  0  0  0  0  0  0  0
   12.1998  -74.1658    2.6689 C   0  0  0  0  0  0  0  0  0  0  0  0
   13.7119  -72.6177    3.9517 C   0  0  0  0  0  0  0  0  0  0  0  0
   14.4343  -72.5716    2.9723 O   0  0  0  0  0  0  0  0  0  0  0  0
   16.0569  -73.7633    5.7287 H   0  0  0  0  0  0  0  0  0  0  0  0
   17.2787  -72.7467    6.1036 H   0  0  0  0  0  0  0  0  0  0  0  0
   15.9520  -72.8141    7.0534 H   0  0  0  0  0  0  0  0  0  0  0  0
   15.9869  -71.8329    4.3399 H   0  0  0  0  0  0  0  0  0  0  0  0
   15.8820  -70.8837    5.6645 H   0  0  0  0  0  0  0  0  0  0  0  0
   14.0027  -69.8170    6.9871 H   0  0  0  0  0  0  0  0  0  0  0  0
   13.1920  -67.5865    6.6944 H   0  0  0  0  0  0  0  0  0  0  0  0
   12.3212  -66.8755    4.5850 H   0  0  0  0  0  0  0  0  0  0  0  0
   13.3204  -69.5661    0.5240 H   0  0  0  0  0  0  0  0  0  0  0  0
   15.9291  -67.3400   -2.4781 H   0  0  0  0  0  0  0  0  0  0  0  0
   16.7661  -68.0641   -1.2774 H   0  0  0  0  0  0  0  0  0  0  0  0
   16.6309  -68.7923   -2.7328 H   0  0  0  0  0  0  0  0  0  0  0  0
   14.1865  -68.4335   -3.4465 H   0  0  0  0  0  0  0  0  0  0  0  0
   14.1879  -70.0402   -3.1548 H   0  0  0  0  0  0  0  0  0  0  0  0
   13.0438  -69.0891   -2.4816 H   0  0  0  0  0  0  0  0  0  0  0  0
   14.0830  -71.6490   -2.1593 H   0  0  0  0  0  0  0  0  0  0  0  0
   16.5120  -72.3293    1.0398 H   0  0  0  0  0  0  0  0  0  0  0  0
   16.5522  -68.5975    0.4884 H   0  0  0  0  0  0  0  0  0  0  0  0
   16.4503  -69.5340    1.8223 H   0  0  0  0  0  0  0  0  0  0  0  0
   17.7230  -69.6893    0.8109 H   0  0  0  0  0  0  0  0  0  0  0  0
   14.9587  -66.2417   -1.3462 H   0  0  0  0  0  0  0  0  0  0  0  0
   13.9401  -64.8196    0.2891 H   0  0  0  0  0  0  0  0  0  0  0  0
   13.0704  -70.6504    3.0268 H   0  0  0  0  0  0  0  0  0  0  0  0
   12.5826  -71.9979    6.5768 H   0  0  0  0  0  0  0  0  0  0  0  0
   14.0667  -71.9583    7.2569 H   0  0  0  0  0  0  0  0  0  0  0  0
   13.5709  -74.0893    7.6191 H   0  0  0  0  0  0  0  0  0  0  0  0
   14.2713  -74.2401    6.1517 H   0  0  0  0  0  0  0  0  0  0  0  0
   12.3871  -75.3176    5.6682 H   0  0  0  0  0  0  0  0  0  0  0  0
   11.5390  -74.5452    6.8304 H   0  0  0  0  0  0  0  0  0  0  0  0
   10.7595  -73.7529    4.7708 H   0  0  0  0  0  0  0  0  0  0  0  0
   11.6139  -72.5456    5.4630 H   0  0  0  0  0  0  0  0  0  0  0  0
   12.6022  -75.0797    2.7217 H   0  0  0  0  0  0  0  0  0  0  0  0
   11.2051  -74.2430    2.6005 H   0  0  0  0  0  0  0  0  0  0  0  0
   12.5535  -73.6919    1.8625 H   0  0  0  0  0  0  0  0  0  0  0  0
  1  2  1  0  0  0  0
  2  3  1  0  0  0  0
  3  4  1  0  0  0  0
  4  5  2  0  0  0  0
  5  6  1  0  0  0  0
  6  7  2  0  0  0  0
  7  8  1  0  0  0  0
  8  9  1  0  0  0  0
  9 10  1  0  0  0  0
 10 11  2  0  0  0  0
 11 12  1  0  0  0  0
 12 13  1  0  0  0  0
 13 14  1  0  0  0  0
 13 15  1  0  0  0  0
 13 16  1  0  0  0  0
 16 17  2  0  0  0  0
 17 18  1  0  0  0  0
 18 19  2  0  0  0  0
 19 20  1  0  0  0  0
 20 21  1  0  0  0  0
 12 22  2  0  0  0  0
 22 23  1  0  0  0  0
 23 24  2  0  0  0  0
 24 25  1  0  0  0  0
 25 26  3  0  0  0  0
  8 27  2  0  0  0  0
  3 28  1  0  0  0  0
 28 29  1  0  0  0  0
 29 30  1  0  0  0  0
 30 31  1  0  0  0  0
 31 32  1  0  0  0  0
 32 33  1  0  0  0  0
 32 34  1  0  0  0  0
 34 35  2  0  0  0  0
 34  3  1  0  0  0  0
 27  4  1  0  0  0  0
 24 10  1  0  0  0  0
 20 16  1  0  0  0  0
  1 36  1  0  0  0  0
  1 37  1  0  0  0  0
  1 38  1  0  0  0  0
  2 39  1  0  0  0  0
  2 40  1  0  0  0  0
  5 41  1  0  0  0  0
  6 42  1  0  0  0  0
  7 43  1  0  0  0  0
 11 44  1  0  0  0  0
 14 45  1  0  0  0  0
 14 46  1  0  0  0  0
 14 47  1  0  0  0  0
 15 48  1  0  0  0  0
 15 49  1  0  0  0  0
 15 50  1  0  0  0  0
 17 51  1  0  0  0  0
 19 52  1  0  0  0  0
 21 53  1  0  0  0  0
 21 54  1  0  0  0  0
 21 55  1  0  0  0  0
 22 56  1  0  0  0  0
 23 57  1  0  0  0  0
 27 58  1  0  0  0  0
 28 59  1  0  0  0  0
 28 60  1  0  0  0  0
 29 61  1  0  0  0  0
 29 62  1  0  0  0  0
 30 63  1  0  0  0  0
 30 64  1  0  0  0  0
 31 65  1  0  0  0  0
 31 66  1  0  0  0  0
 33 67  1  0  0  0  0
 33 68  1  0  0  0  0
 33 69  1  0  0  0  0
M  CHG  1  15   1
M  END
>  <docking-score>
-24.57

$$$$
1LD7_U66_1
foFlexX   03192112153D 1   1.00000     0.00000     0
FlexX 4.5.0 fol007
 62 67  0  0  0  0            999 V2000
   17.7369  -70.1549    4.7345 N   0  0  0  0  0  0  0  0  0  0  0  0
   18.0780  -70.8334    3.8610 C   0  0  0  0  0  0  0  0  0  0  0  0
   18.5184  -71.7005    2.7492 C   0  0  1  0  0  0  0  0  0  0  0  0
   19.9199  -72.2555    3.0527 C   0  0  0  0  0  0  0  0  0  0  0  0
   19.8946  -73.2638    4.1776 C   0  0  0  0  0  0  0  0  0  0  0  0
   18.8024  -74.0062    4.4678 C   0  0  0  0  0  0  0  0  0  0  0  0
   17.4899  -73.8216    3.7318 C   0  0  0  0  0  0  0  0  0  0  0  0
   17.5656  -72.8932    2.5065 C   0  0  1  0  0  0  0  0  0  0  0  0
   16.2611  -72.5012    2.0421 O   0  0  0  0  0  0  0  0  0  0  0  0
   15.3643  -71.6925    2.7532 C   0  0  0  0  0  0  0  0  0  0  0  0
   15.3010  -70.3280    2.4639 C   0  0  0  0  0  0  0  0  0  0  0  0
   14.4599  -69.4911    3.1943 C   0  0  0  0  0  0  0  0  0  0  0  0
   13.6677  -70.0110    4.2283 C   0  0  0  0  0  0  0  0  0  0  0  0
   12.8494  -69.1529    4.9739 C   0  0  0  0  0  0  0  0  0  0  0  0
   12.0648  -69.6548    6.0078 C   0  0  0  0  0  0  0  0  0  0  0  0
   12.0852  -71.0150    6.3092 C   0  0  0  0  0  0  0  0  0  0  0  0
   12.8873  -71.9076    5.5764 C   0  0  0  0  0  0  0  0  0  0  0  0
   13.6923  -71.4036    4.5162 C   0  0  0  0  0  0  0  0  0  0  0  0
   14.5145  -72.2389    3.7291 C   0  0  0  0  0  0  0  0  0  0  0  0
   12.8845  -73.3034    5.9409 N   0  0  0  0  0  0  0  0  0  0  0  0
   11.6885  -74.0968    6.1964 C   0  0  0  0  0  0  0  0  0  0  0  0
   12.1585  -75.3006    7.0346 C   0  0  0  0  0  0  0  0  0  0  0  0
   13.6738  -75.4341    6.7830 C   0  0  1  0  0  0  0  0  0  0  0  0
   13.9188  -76.4291    5.7128 N   0  3  0  0  0  0  0  0  0  0  0  0
   15.2920  -76.4484    5.1809 C   0  0  0  0  0  0  0  0  0  0  0  0
   16.3405  -76.8912    6.2127 C   0  0  0  0  0  0  0  0  0  0  0  0
   17.6499  -77.1911    5.5268 C   0  0  0  0  0  0  0  0  0  0  0  0
   17.9726  -78.4009    4.9489 C   0  0  0  0  0  0  0  0  0  0  0  0
   19.1737  -78.3058    4.3451 N   0  0  0  0  0  0  0  0  0  0  0  0
   19.5582  -77.0303    4.5595 C   0  0  0  0  0  0  0  0  0  0  0  0
   18.6509  -76.3218    5.2625 N   0  0  0  0  0  0  0  0  0  0  0  0
   18.8059  -74.9241    5.6714 C   0  0  0  0  0  0  0  0  0  0  0  0
   14.0148  -74.0436    6.3704 C   0  0  0  0  0  0  0  0  0  0  0  0
   15.1599  -73.5345    6.5019 O   0  0  0  0  0  0  0  0  0  0  0  0
   18.5647  -71.1522    1.9142 H   0  0  0  0  0  0  0  0  0  0  0  0
   20.5189  -71.4975    3.3113 H   0  0  0  0  0  0  0  0  0  0  0  0
   20.2778  -72.6975    2.2302 H   0  0  0  0  0  0  0  0  0  0  0  0
   20.7191  -73.3872    4.7299 H   0  0  0  0  0  0  0  0  0  0  0  0
   16.8246  -73.4384    4.3725 H   0  0  0  0  0  0  0  0  0  0  0  0
   17.1766  -74.7198    3.4234 H   0  0  0  0  0  0  0  0  0  0  0  0
   17.9744  -73.4331    1.7707 H   0  0  0  0  0  0  0  0  0  0  0  0
   15.8625  -69.9492    1.7282 H   0  0  0  0  0  0  0  0  0  0  0  0
   14.4208  -68.5151    2.9802 H   0  0  0  0  0  0  0  0  0  0  0  0
   12.8289  -68.1758    4.7625 H   0  0  0  0  0  0  0  0  0  0  0  0
   11.4836  -69.0365    6.5368 H   0  0  0  0  0  0  0  0  0  0  0  0
   11.5206  -71.3618    7.0583 H   0  0  0  0  0  0  0  0  0  0  0  0
   14.4917  -73.2290    3.8677 H   0  0  0  0  0  0  0  0  0  0  0  0
   11.2856  -74.4073    5.3355 H   0  0  0  0  0  0  0  0  0  0  0  0
   11.0156  -73.5594    6.7047 H   0  0  0  0  0  0  0  0  0  0  0  0
   11.6842  -76.1317    6.7441 H   0  0  0  0  0  0  0  0  0  0  0  0
   11.9812  -75.1377    8.0052 H   0  0  0  0  0  0  0  0  0  0  0  0
   14.1549  -75.6862    7.6227 H   0  0  0  0  0  0  0  0  0  0  0  0
   13.2962  -76.2299    4.9561 H   0  0  0  0  0  0  0  0  0  0  0  0
   13.7163  -77.3365    6.0811 H   0  0  0  0  0  0  0  0  0  0  0  0
   15.5239  -75.5271    4.8689 H   0  0  0  0  0  0  0  0  0  0  0  0
   15.3229  -77.0803    4.4065 H   0  0  0  0  0  0  0  0  0  0  0  0
   16.0167  -77.7133    6.6810 H   0  0  0  0  0  0  0  0  0  0  0  0
   16.4770  -76.1593    6.8802 H   0  0  0  0  0  0  0  0  0  0  0  0
   17.4029  -79.2224    4.9741 H   0  0  0  0  0  0  0  0  0  0  0  0
   20.4235  -76.6508    4.2321 H   0  0  0  0  0  0  0  0  0  0  0  0
   19.6721  -74.8199    6.1602 H   0  0  0  0  0  0  0  0  0  0  0  0
   18.0498  -74.6740    6.2762 H   0  0  0  0  0  0  0  0  0  0  0  0
  1  2  3  0  0  0  0
  2  3  1  0  0  0  0
  3  4  1  0  0  0  0
  4  5  1  0  0  0  0
  5  6  2  0  0  0  0
  6  7  1  0  0  0  0
  7  8  1  0  0  0  0
  8  9  1  0  0  0  0
  9 10  1  0  0  0  0
 10 11  2  0  0  0  0
 11 12  1  0  0  0  0
 12 13  2  0  0  0  0
 13 14  1  0  0  0  0
 14 15  2  0  0  0  0
 15 16  1  0  0  0  0
 16 17  2  0  0  0  0
 17 18  1  0  0  0  0
 18 19  2  0  0  0  0
 17 20  1  0  0  0  0
 20 21  1  0  0  0  0
 21 22  1  0  0  0  0
 22 23  1  0  0  0  0
 23 24  1  0  0  0  0
 24 25  1  0  0  0  0
 25 26  1  0  0  0  0
 26 27  1  0  0  0  0
 27 28  2  0  0  0  0
 28 29  1  0  0  0  0
 29 30  2  0  0  0  0
 30 31  1  0  0  0  0
 31 32  1  0  0  0  0
 23 33  1  0  0  0  0
 33 34  2  0  0  0  0
  8  3  1  0  0  0  0
 19 10  1  0  0  0  0
 33 20  1  0  0  0  0
 32  6  1  0  0  0  0
 18 13  1  0  0  0  0
 31 27  1  0  0  0  0
  3 35  1  0  0  0  0
  4 36  1  0  0  0  0
  4 37  1  0  0  0  0
  5 38  1  0  0  0  0
  7 39  1  0  0  0  0
  7 40  1  0  0  0  0
  8 41  1  0  0  0  0
 11 42  1  0  0  0  0
 12 43  1  0  0  0  0
 14 44  1  0  0  0  0
 15 45  1  0  0  0  0
 16 46  1  0  0  0  0
 19 47  1  0  0  0  0
 21 48  1  0  0  0  0
 21 49  1  0  0  0  0
 22 50  1  0  0  0  0
 22 51  1  0  0  0  0
 23 52  1  0  0  0  0
 24 53  1  0  0  0  0
 24 54  1  0  0  0  0
 25 55  1  0  0  0  0
 25 56  1  0  0  0  0
 26 57  1  0  0  0  0
 26 58  1  0  0  0  0
 28 59  1  0  0  0  0
 30 60  1  0  0  0  0
 32 61  1  0  0  0  0
 32 62  1  0  0  0  0
M  CHG  1  24   1
M  END
>  <docking-score>
-19.45

$$$$
1LD7_U66_2
foFlexX   03192112153D 1   1.00000     0.00000     0
FlexX 4.5.0 fol007
 62 67  0  0  0  0            999 V2000
   19.1973  -69.3948    3.0839 N   0  0  0  0  0  0  0  0  0  0  0  0
   18.6956  -70.1254    3.8284 C   0  0  0  0  0  0  0  0  0  0  0  0
   18.0557  -71.0537    4.7827 C   0  0  1  0  0  0  0  0  0  0  0  0
   17.9346  -70.3762    6.1578 C   0  0  0  0  0  0  0  0  0  0  0  0
   16.9127  -69.2634    6.1490 C   0  0  0  0  0  0  0  0  0  0  0  0
   15.8629  -69.2433    5.2970 C   0  0  0  0  0  0  0  0  0  0  0  0
   15.6788  -70.3021    4.2278 C   0  0  0  0  0  0  0  0  0  0  0  0
   16.6445  -71.4960    4.3330 C   0  0  1  0  0  0  0  0  0  0  0  0
   16.6473  -72.2978    3.1379 O   0  0  0  0  0  0  0  0  0  0  0  0
   17.1134  -71.8732    1.8864 C   0  0  0  0  0  0  0  0  0  0  0  0
   18.4078  -72.2152    1.4897 C   0  0  0  0  0  0  0  0  0  0  0  0
   18.9165  -71.7585    0.2757 C   0  0  0  0  0  0  0  0  0  0  0  0
   18.1333  -70.9500   -0.5609 C   0  0  0  0  0  0  0  0  0  0  0  0
   18.6684  -70.4733   -1.7644 C   0  0  0  0  0  0  0  0  0  0  0  0
   17.9046  -69.6637   -2.5995 C   0  0  0  0  0  0  0  0  0  0  0  0
   16.6009  -69.3213   -2.2467 C   0  0  0  0  0  0  0  0  0  0  0  0
   16.0275  -69.7887   -1.0509 C   0  0  0  0  0  0  0  0  0  0  0  0
   16.8006  -70.6185   -0.1909 C   0  0  0  0  0  0  0  0  0  0  0  0
   16.2904  -71.1349    1.0199 C   0  0  0  0  0  0  0  0  0  0  0  0
   14.6798  -69.3903   -0.7249 N   0  0  0  0  0  0  0  0  0  0  0  0
   13.5518  -69.4290   -1.6476 C   0  0  0  0  0  0  0  0  0  0  0  0
   12.5066  -68.4568   -1.0687 C   0  0  0  0  0  0  0  0  0  0  0  0
   12.8478  -68.2996    0.4267 C   0  0  1  0  0  0  0  0  0  0  0  0
   12.0253  -69.2343    1.2298 N   0  3  0  0  0  0  0  0  0  0  0  0
   12.4458  -69.3885    2.6328 C   0  0  0  0  0  0  0  0  0  0  0  0
   12.2903  -68.1044    3.4616 C   0  0  0  0  0  0  0  0  0  0  0  0
   12.4318  -68.4142    4.9310 C   0  0  0  0  0  0  0  0  0  0  0  0
   11.4045  -68.8464    5.7430 C   0  0  0  0  0  0  0  0  0  0  0  0
   11.8857  -69.1187    6.9721 N   0  0  0  0  0  0  0  0  0  0  0  0
   13.2059  -68.8549    6.8828 C   0  0  0  0  0  0  0  0  0  0  0  0
   13.5738  -68.4375    5.6541 N   0  0  0  0  0  0  0  0  0  0  0  0
   14.9321  -68.0500    5.2669 C   0  0  0  0  0  0  0  0  0  0  0  0
   14.2946  -68.6559    0.4249 C   0  0  0  0  0  0  0  0  0  0  0  0
   15.1179  -68.2474    1.2869 O   0  0  0  0  0  0  0  0  0  0  0  0
   18.6319  -71.8658    4.8751 H   0  0  0  0  0  0  0  0  0  0  0  0
   18.8244  -69.9962    6.4106 H   0  0  0  0  0  0  0  0  0  0  0  0
   17.6608  -71.0614    6.8328 H   0  0  0  0  0  0  0  0  0  0  0  0
   17.0170  -68.5112    6.7997 H   0  0  0  0  0  0  0  0  0  0  0  0
   15.8127  -69.8706    3.3357 H   0  0  0  0  0  0  0  0  0  0  0  0
   14.7438  -70.6509    4.2924 H   0  0  0  0  0  0  0  0  0  0  0  0
   16.2886  -72.0808    5.0619 H   0  0  0  0  0  0  0  0  0  0  0  0
   18.9729  -72.7913    2.0803 H   0  0  0  0  0  0  0  0  0  0  0  0
   19.8446  -72.0083   -0.0005 H   0  0  0  0  0  0  0  0  0  0  0  0
   19.6030  -70.7159   -2.0246 H   0  0  0  0  0  0  0  0  0  0  0  0
   18.2932  -69.3259   -3.4568 H   0  0  0  0  0  0  0  0  0  0  0  0
   16.0647  -68.7342   -2.8532 H   0  0  0  0  0  0  0  0  0  0  0  0
   15.3339  -70.9735    1.2631 H   0  0  0  0  0  0  0  0  0  0  0  0
   13.1760  -70.3542   -1.7003 H   0  0  0  0  0  0  0  0  0  0  0  0
   13.8367  -69.1325   -2.5591 H   0  0  0  0  0  0  0  0  0  0  0  0
   11.5862  -68.8327   -1.1767 H   0  0  0  0  0  0  0  0  0  0  0  0
   12.5619  -67.5723   -1.5318 H   0  0  0  0  0  0  0  0  0  0  0  0
   12.7123  -67.3554    0.7271 H   0  0  0  0  0  0  0  0  0  0  0  0
   12.0638  -70.1337    0.7942 H   0  0  0  0  0  0  0  0  0  0  0  0
   11.0824  -68.9011    1.2238 H   0  0  0  0  0  0  0  0  0  0  0  0
   13.4080  -69.6603    2.6471 H   0  0  0  0  0  0  0  0  0  0  0  0
   11.8904  -70.1060    3.0530 H   0  0  0  0  0  0  0  0  0  0  0  0
   11.3874  -67.7092    3.2926 H   0  0  0  0  0  0  0  0  0  0  0  0
   12.9966  -67.4497    3.1924 H   0  0  0  0  0  0  0  0  0  0  0  0
   10.4494  -68.9429    5.4630 H   0  0  0  0  0  0  0  0  0  0  0  0
   13.8436  -68.9578    7.6462 H   0  0  0  0  0  0  0  0  0  0  0  0
   15.2687  -67.3559    5.9034 H   0  0  0  0  0  0  0  0  0  0  0  0
   14.9136  -67.6723    4.3412 H   0  0  0  0  0  0  0  0  0  0  0  0
  1  2  3  0  0  0  0
  2  3  1  0  0  0  0
  3  4  1  0  0  0  0
  4  5  1  0  0  0  0
  5  6  2  0  0  0  0
  6  7  1  0  0  0  0
  7  8  1  0  0  0  0
  8  9  1  0  0  0  0
  9 10  1  0  0  0  0
 10 11  2  0  0  0  0
 11 12  1  0  0  0  0
 12 13  2  0  0  0  0
 13 14  1  0  0  0  0
 14 15  2  0  0  0  0
 15 16  1  0  0  0  0
 16 17  2  0  0  0  0
 17 18  1  0  0  0  0
 18 19  2  0  0  0  0
 17 20  1  0  0  0  0
 20 21  1  0  0  0  0
 21 22  1  0  0  0  0
 22 23  1  0  0  0  0
 23 24  1  0  0  0  0
 24 25  1  0  0  0  0
 25 26  1  0  0  0  0
 26 27  1  0  0  0  0
 27 28  2  0  0  0  0
 28 29  1  0  0  0  0
 29 30  2  0  0  0  0
 30 31  1  0  0  0  0
 31 32  1  0  0  0  0
 23 33  1  0  0  0  0
 33 34  2  0  0  0  0
  8  3  1  0  0  0  0
 19 10  1  0  0  0  0
 33 20  1  0  0  0  0
 32  6  1  0  0  0  0
 18 13  1  0  0  0  0
 31 27  1  0  0  0  0
  3 35  1  0  0  0  0
  4 36  1  0  0  0  0
  4 37  1  0  0  0  0
  5 38  1  0  0  0  0
  7 39  1  0  0  0  0
  7 40  1  0  0  0  0
  8 41  1  0  0  0  0
 11 42  1  0  0  0  0
 12 43  1  0  0  0  0
 14 44  1  0  0  0  0
 15 45  1  0  0  0  0
 16 46  1  0  0  0  0
 19 47  1  0  0  0  0
 21 48  1  0  0  0  0
 21 49  1  0  0  0  0
 22 50  1  0  0  0  0
 22 51  1  0  0  0  0
 23 52  1  0  0  0  0
 24 53  1  0  0  0  0
 24 54  1  0  0  0  0
 25 55  1  0  0  0  0
 25 56  1  0  0  0  0
 26 57  1  0  0  0  0
 26 58  1  0  0  0  0
 28 59  1  0  0  0  0
 30 60  1  0  0  0  0
 32 61  1  0  0  0  0
 32 62  1  0  0  0  0
M  CHG  1  24   1
M  END
>  <docking-score>
-18.50

$$$$
1LD7_U66_3
foFlexX   03192112153D 1   1.00000     0.00000     0
FlexX 4.5.0 fol007
 62 67  0  0  0  0            999 V2000
   15.4255  -66.7046    4.5004 N   0  0  0  0  0  0  0  0  0  0  0  0
   15.1573  -66.2509    3.4698 C   0  0  0  0  0  0  0  0  0  0  0  0
   14.8208  -65.6705    2.1539 C   0  0  1  0  0  0  0  0  0  0  0  0
   16.0897  -65.0914    1.5066 C   0  0  0  0  0  0  0  0  0  0  0  0
   17.0483  -66.1773    1.0769 C   0  0  0  0  0  0  0  0  0  0  0  0
   16.6399  -67.4249    0.7526 C   0  0  0  0  0  0  0  0  0  0  0  0
   15.1899  -67.8501    0.8749 C   0  0  0  0  0  0  0  0  0  0  0  0
   14.2084  -66.7049    1.1822 C   0  0  1  0  0  0  0  0  0  0  0  0
   12.9201  -67.1923    1.5990 O   0  0  0  0  0  0  0  0  0  0  0  0
   12.6712  -67.8895    2.7890 C   0  0  0  0  0  0  0  0  0  0  0  0
   12.1827  -67.1937    3.8966 C   0  0  0  0  0  0  0  0  0  0  0  0
   11.9805  -67.8508    5.1085 C   0  0  0  0  0  0  0  0  0  0  0  0
   12.2656  -69.2187    5.2283 C   0  0  0  0  0  0  0  0  0  0  0  0
   12.0860  -69.8597    6.4607 C   0  0  0  0  0  0  0  0  0  0  0  0
   12.3731  -71.2146    6.5950 C   0  0  0  0  0  0  0  0  0  0  0  0
   12.8401  -71.9457    5.5047 C   0  0  0  0  0  0  0  0  0  0  0  0
   13.0239  -71.3381    4.2501 C   0  0  0  0  0  0  0  0  0  0  0  0
   12.7317  -69.9529    4.1028 C   0  0  0  0  0  0  0  0  0  0  0  0
   12.8805  -69.2760    2.8728 C   0  0  0  0  0  0  0  0  0  0  0  0
   13.5261  -72.1367    3.1586 N   0  0  0  0  0  0  0  0  0  0  0  0
   13.0313  -73.4589    2.7953 C   0  0  0  0  0  0  0  0  0  0  0  0
   14.1585  -74.1146    1.9755 C   0  0  0  0  0  0  0  0  0  0  0  0
   15.0368  -72.9604    1.4523 C   0  0  1  0  0  0  0  0  0  0  0  0
   14.6191  -72.5951    0.0785 N   0  3  0  0  0  0  0  0  0  0  0  0
   15.1814  -71.3326   -0.4300 C   0  0  0  0  0  0  0  0  0  0  0  0
   16.7068  -71.3711   -0.6080 C   0  0  0  0  0  0  0  0  0  0  0  0
   17.1656  -70.1836   -1.4168 C   0  0  0  0  0  0  0  0  0  0  0  0
   17.1881  -70.1358   -2.7948 C   0  0  0  0  0  0  0  0  0  0  0  0
   17.5619  -68.9049   -3.1969 N   0  0  0  0  0  0  0  0  0  0  0  0
   17.7521  -68.2195   -2.0504 C   0  0  0  0  0  0  0  0  0  0  0  0
   17.5079  -68.9616   -0.9508 N   0  0  0  0  0  0  0  0  0  0  0  0
   17.6582  -68.4974    0.4301 C   0  0  0  0  0  0  0  0  0  0  0  0
   14.7320  -71.8985    2.4522 C   0  0  0  0  0  0  0  0  0  0  0  0
   15.5168  -70.9532    2.7318 O   0  0  0  0  0  0  0  0  0  0  0  0
   14.1633  -64.9293    2.2893 H   0  0  0  0  0  0  0  0  0  0  0  0
   16.5485  -64.4983    2.1683 H   0  0  0  0  0  0  0  0  0  0  0  0
   15.8276  -64.5553    0.7042 H   0  0  0  0  0  0  0  0  0  0  0  0
   18.0244  -65.9648    1.0305 H   0  0  0  0  0  0  0  0  0  0  0  0
   15.1236  -68.5233    1.6114 H   0  0  0  0  0  0  0  0  0  0  0  0
   14.9151  -68.2726    0.0112 H   0  0  0  0  0  0  0  0  0  0  0  0
   14.0598  -66.2238    0.3182 H   0  0  0  0  0  0  0  0  0  0  0  0
   11.9768  -66.2181    3.8197 H   0  0  0  0  0  0  0  0  0  0  0  0
   11.6303  -67.3447    5.8966 H   0  0  0  0  0  0  0  0  0  0  0  0
   11.7501  -69.3414    7.2473 H   0  0  0  0  0  0  0  0  0  0  0  0
   12.2436  -71.6657    7.4781 H   0  0  0  0  0  0  0  0  0  0  0  0
   13.0478  -72.9176    5.6162 H   0  0  0  0  0  0  0  0  0  0  0  0
   13.1374  -69.7885    2.0534 H   0  0  0  0  0  0  0  0  0  0  0  0
   12.1999  -73.3810    2.2451 H   0  0  0  0  0  0  0  0  0  0  0  0
   12.8387  -73.9968    3.6160 H   0  0  0  0  0  0  0  0  0  0  0  0
   13.7749  -74.6325    1.2108 H   0  0  0  0  0  0  0  0  0  0  0  0
   14.6980  -74.7258    2.5546 H   0  0  0  0  0  0  0  0  0  0  0  0
   16.0053  -73.2081    1.4777 H   0  0  0  0  0  0  0  0  0  0  0  0
   13.6222  -72.5167    0.0683 H   0  0  0  0  0  0  0  0  0  0  0  0
   14.9019  -73.3306   -0.5372 H   0  0  0  0  0  0  0  0  0  0  0  0
   14.9561  -70.6027    0.2153 H   0  0  0  0  0  0  0  0  0  0  0  0
   14.7638  -71.1342   -1.3167 H   0  0  0  0  0  0  0  0  0  0  0  0
   16.9630  -72.2132   -1.0826 H   0  0  0  0  0  0  0  0  0  0  0  0
   17.1451  -71.3484    0.2905 H   0  0  0  0  0  0  0  0  0  0  0  0
   16.9619  -70.8972   -3.4023 H   0  0  0  0  0  0  0  0  0  0  0  0
   18.0431  -67.2633   -2.0191 H   0  0  0  0  0  0  0  0  0  0  0  0
   18.5775  -68.1233    0.5517 H   0  0  0  0  0  0  0  0  0  0  0  0
   17.5279  -69.2701    1.0513 H   0  0  0  0  0  0  0  0  0  0  0  0
  1  2  3  0  0  0  0
  2  3  1  0  0  0  0
  3  4  1  0  0  0  0
  4  5  1  0  0  0  0
  5  6  2  0  0  0  0
  6  7  1  0  0  0  0
  7  8  1  0  0  0  0
  8  9  1  0  0  0  0
  9 10  1  0  0  0  0
 10 11  2  0  0  0  0
 11 12  1  0  0  0  0
 12 13  2  0  0  0  0
 13 14  1  0  0  0  0
 14 15  2  0  0  0  0
 15 16  1  0  0  0  0
 16 17  2  0  0  0  0
 17 18  1  0  0  0  0
 18 19  2  0  0  0  0
 17 20  1  0  0  0  0
 20 21  1  0  0  0  0
 21 22  1  0  0  0  0
 22 23  1  0  0  0  0
 23 24  1  0  0  0  0
 24 25  1  0  0  0  0
 25 26  1  0  0  0  0
 26 27  1  0  0  0  0
 27 28  2  0  0  0  0
 28 29  1  0  0  0  0
 29 30  2  0  0  0  0
 30 31  1  0  0  0  0
 31 32  1  0  0  0  0
 23 33  1  0  0  0  0
 33 34  2  0  0  0  0
  8  3  1  0  0  0  0
 19 10  1  0  0  0  0
 33 20  1  0  0  0  0
 32  6  1  0  0  0  0
 18 13  1  0  0  0  0
 31 27  1  0  0  0  0
  3 35  1  0  0  0  0
  4 36  1  0  0  0  0
  4 37  1  0  0  0  0
  5 38  1  0  0  0  0
  7 39  1  0  0  0  0
  7 40  1  0  0  0  0
  8 41  1  0  0  0  0
 11 42  1  0  0  0  0
 12 43  1  0  0  0  0
 14 44  1  0  0  0  0
 15 45  1  0  0  0  0
 16 46  1  0  0  0  0
 19 47  1  0  0  0  0
 21 48  1  0  0  0  0
 21 49  1  0  0  0  0
 22 50  1  0  0  0  0
 22 51  1  0  0  0  0
 23 52  1  0  0  0  0
 24 53  1  0  0  0  0
 24 54  1  0  0  0  0
 25 55  1  0  0  0  0
 25 56  1  0  0  0  0
 26 57  1  0  0  0  0
 26 58  1  0  0  0  0
 28 59  1  0  0  0  0
 30 60  1  0  0  0  0
 32 61  1  0  0  0  0
 32 62  1  0  0  0  0
M  CHG  1  24   1
M  END
>  <docking-score>
-17.12

$$$$
1S63_778_1
foFlexX   03192112153D 1   1.00000     0.00000     0
FlexX 4.5.0 fol007
 50 53  0  0  0  0            999 V2000
   20.5266  -76.2717    5.4725 N   0  0  0  0  0  0  0  0  0  0  0  0
   19.4084  -76.1181    5.2182 C   0  0  0  0  0  0  0  0  0  0  0  0
   18.0175  -75.9301    4.8995 C   0  0  0  0  0  0  0  0  0  0  0  0
   17.1085  -76.9428    5.1890 C   0  0  0  0  0  0  0  0  0  0  0  0
   15.7612  -76.7748    4.8872 C   0  0  0  0  0  0  0  0  0  0  0  0
   15.3411  -75.5879    4.2958 C   0  0  0  0  0  0  0  0  0  0  0  0
   13.8719  -75.3920    3.9593 C   0  0  0  0  0  0  0  0  0  0  0  0
   13.0353  -75.4753    5.1597 N   0  0  0  0  0  0  0  0  0  0  0  0
   12.4745  -76.6165    5.6543 C   0  0  0  0  0  0  0  0  0  0  0  0
   11.8002  -76.2958    6.7366 N   0  0  0  0  0  0  0  0  0  0  0  0
   11.9190  -74.9514    6.9490 C   0  0  0  0  0  0  0  0  0  0  0  0
   12.6963  -74.4263    5.9583 C   0  0  0  0  0  0  0  0  0  0  0  0
   13.1016  -72.9711    5.7905 C   0  0  0  0  0  0  0  0  0  0  0  0
   14.3695  -72.6339    6.4894 N   0  3  2  0  0  0  0  0  0  0  0  0
   15.3918  -72.1962    5.5270 C   0  0  0  0  0  0  0  0  0  0  0  0
   16.6031  -71.6947    6.3033 C   0  0  0  0  0  0  0  0  0  0  0  0
   17.0614  -72.6684    7.3058 N   0  0  0  0  0  0  0  0  0  0  0  0
   18.3580  -72.5436    7.8133 C   0  0  0  0  0  0  0  0  0  0  0  0
   19.2629  -73.5861    7.6407 C   0  0  0  0  0  0  0  0  0  0  0  0
   20.5522  -73.4559    8.1465 C   0  0  0  0  0  0  0  0  0  0  0  0
   20.9413  -72.3018    8.8178 C   0  0  0  0  0  0  0  0  0  0  0  0
   20.0205  -71.2714    8.9788 C   0  0  0  0  0  0  0  0  0  0  0  0
   20.4988  -69.7860    9.8345 Cl  0  0  0  0  0  0  0  0  0  0  0  0
   18.7262  -71.3805    8.4812 C   0  0  0  0  0  0  0  0  0  0  0  0
   16.2292  -73.7062    7.7495 C   0  0  0  0  0  0  0  0  0  0  0  0
   16.5807  -74.4926    8.6114 O   0  0  0  0  0  0  0  0  0  0  0  0
   14.8402  -73.8624    7.1420 C   0  0  0  0  0  0  0  0  0  0  0  0
   16.2473  -74.5736    4.0044 C   0  0  0  0  0  0  0  0  0  0  0  0
   17.5944  -74.7442    4.3079 C   0  0  0  0  0  0  0  0  0  0  0  0
   17.4237  -77.7913    5.6139 H   0  0  0  0  0  0  0  0  0  0  0  0
   15.1025  -77.4986    5.0930 H   0  0  0  0  0  0  0  0  0  0  0  0
   13.5879  -76.1015    3.3144 H   0  0  0  0  0  0  0  0  0  0  0  0
   13.7509  -74.4924    3.5397 H   0  0  0  0  0  0  0  0  0  0  0  0
   12.5608  -77.5330    5.2635 H   0  0  0  0  0  0  0  0  0  0  0  0
   11.5065  -74.4394    7.7025 H   0  0  0  0  0  0  0  0  0  0  0  0
   12.3726  -72.3934    6.1576 H   0  0  0  0  0  0  0  0  0  0  0  0
   13.2164  -72.7832    4.8150 H   0  0  0  0  0  0  0  0  0  0  0  0
   14.2089  -71.9203    7.1713 H   0  0  0  0  0  0  0  0  0  0  0  0
   15.0264  -71.4589    4.9588 H   0  0  0  0  0  0  0  0  0  0  0  0
   15.6584  -72.9645    4.9452 H   0  0  0  0  0  0  0  0  0  0  0  0
   17.3484  -71.5197    5.6599 H   0  0  0  0  0  0  0  0  0  0  0  0
   16.3581  -70.8442    6.7688 H   0  0  0  0  0  0  0  0  0  0  0  0
   18.9899  -74.4188    7.1591 H   0  0  0  0  0  0  0  0  0  0  0  0
   21.2076  -74.2016    8.0258 H   0  0  0  0  0  0  0  0  0  0  0  0
   21.8694  -72.2138    9.1796 H   0  0  0  0  0  0  0  0  0  0  0  0
   18.0710  -70.6347    8.6017 H   0  0  0  0  0  0  0  0  0  0  0  0
   14.8681  -74.5957    6.4627 H   0  0  0  0  0  0  0  0  0  0  0  0
   14.1979  -74.1056    7.8688 H   0  0  0  0  0  0  0  0  0  0  0  0
   15.9320  -73.7255    3.5787 H   0  0  0  0  0  0  0  0  0  0  0  0
   18.2530  -74.0204    4.1024 H   0  0  0  0  0  0  0  0  0  0  0  0
  1  2  3  0  0  0  0
  2  3  1  0  0  0  0
  3  4  2  0  0  0  0
  4  5  1  0  0  0  0
  5  6  2  0  0  0  0
  6  7  1  0  0  0  0
  7  8  1  0  0  0  0
  8  9  1  0  0  0  0
  9 10  2  0  0  0  0
 10 11  1  0  0  0  0
 11 12  2  0  0  0  0
 12 13  1  0  0  0  0
 13 14  1  0  0  0  0
 14 15  1  0  0  0  0
 15 16  1  0  0  0  0
 16 17  1  0  0  0  0
 17 18  1  0  0  0  0
 18 19  2  0  0  0  0
 19 20  1  0  0  0  0
 20 21  2  0  0  0  0
 21 22  1  0  0  0  0
 22 23  1  0  0  0  0
 22 24  2  0  0  0  0
 17 25  1  0  0  0  0
 25 26  2  0  0  0  0
 25 27  1  0  0  0  0
  6 28  1  0  0  0  0
 28 29  2  0  0  0  0
 29  3  1  0  0  0  0
 12  8  1  0  0  0  0
 27 14  1  0  0  0  0
 24 18  1  0  0  0  0
  4 30  1  0  0  0  0
  5 31  1  0  0  0  0
  7 32  1  0  0  0  0
  7 33  1  0  0  0  0
  9 34  1  0  0  0  0
 11 35  1  0  0  0  0
 13 36  1  0  0  0  0
 13 37  1  0  0  0  0
 14 38  1  0  0  0  0
 15 39  1  0  0  0  0
 15 40  1  0  0  0  0
 16 41  1  0  0  0  0
 16 42  1  0  0  0  0
 19 43  1  0  0  0  0
 20 44  1  0  0  0  0
 21 45  1  0  0  0  0
 24 46  1  0  0  0  0
 27 47  1  0  0  0  0
 27 48  1  0  0  0  0
 28 49  1  0  0  0  0
 29 50  1  0  0  0  0
M  CHG  1  14   1
M  END
>  <docking-score>
-22.67

$$$$
1S63_778_2
foFlexX   03192112153D 1   1.00000     0.00000     0
FlexX 4.5.0 fol007
 50 53  0  0  0  0            999 V2000
   20.5209  -76.3163    5.6786 N   0  0  0  0  0  0  0  0  0  0  0  0
   19.4106  -76.1662    5.3901 C   0  0  0  0  0  0  0  0  0  0  0  0
   18.0296  -75.9826    5.0289 C   0  0  0  0  0  0  0  0  0  0  0  0
   17.1115  -76.9898    5.3091 C   0  0  0  0  0  0  0  0  0  0  0  0
   15.7736  -76.8260    4.9664 C   0  0  0  0  0  0  0  0  0  0  0  0
   15.3718  -75.6488    4.3436 C   0  0  0  0  0  0  0  0  0  0  0  0
   13.9129  -75.4575    3.9623 C   0  0  0  0  0  0  0  0  0  0  0  0
   13.0425  -75.5203    5.1396 N   0  0  0  0  0  0  0  0  0  0  0  0
   12.4666  -76.6528    5.6369 C   0  0  0  0  0  0  0  0  0  0  0  0
   11.7621  -76.3137    6.6942 N   0  0  0  0  0  0  0  0  0  0  0  0
   11.8764  -74.9660    6.8875 C   0  0  0  0  0  0  0  0  0  0  0  0
   12.6821  -74.4579    5.9107 C   0  0  0  0  0  0  0  0  0  0  0  0
   13.0937  -73.0060    5.7303 C   0  0  0  0  0  0  0  0  0  0  0  0
   14.3415  -72.6581    6.4594 N   0  3  2  0  0  0  0  0  0  0  0  0
   15.3912  -72.2371    5.5193 C   0  0  0  0  0  0  0  0  0  0  0  0
   16.5806  -71.7235    6.3213 C   0  0  0  0  0  0  0  0  0  0  0  0
   17.0091  -72.6808    7.3524 N   0  0  0  0  0  0  0  0  0  0  0  0
   18.2908  -72.5484    7.8945 C   0  0  0  0  0  0  0  0  0  0  0  0
   18.4772  -71.7574    9.0236 C   0  0  0  0  0  0  0  0  0  0  0  0
   19.7546  -71.6304    9.5597 C   0  0  0  0  0  0  0  0  0  0  0  0
   20.8383  -72.2823    8.9812 C   0  0  0  0  0  0  0  0  0  0  0  0
   20.6293  -73.0687    7.8527 C   0  0  0  0  0  0  0  0  0  0  0  0
   22.0030  -73.9115    7.0977 Cl  0  0  0  0  0  0  0  0  0  0  0  0
   19.3606  -73.2094    7.3002 C   0  0  0  0  0  0  0  0  0  0  0  0
   16.1634  -73.7105    7.7895 C   0  0  0  0  0  0  0  0  0  0  0  0
   16.4894  -74.4827    8.6740 O   0  0  0  0  0  0  0  0  0  0  0  0
   14.7921  -73.8759    7.1454 C   0  0  0  0  0  0  0  0  0  0  0  0
   16.2871  -74.6401    4.0614 C   0  0  0  0  0  0  0  0  0  0  0  0
   17.6248  -74.8065    4.4058 C   0  0  0  0  0  0  0  0  0  0  0  0
   17.4136  -77.8313    5.7569 H   0  0  0  0  0  0  0  0  0  0  0  0
   15.1084  -77.5458    5.1653 H   0  0  0  0  0  0  0  0  0  0  0  0
   13.6466  -76.1775    3.3215 H   0  0  0  0  0  0  0  0  0  0  0  0
   13.8049  -74.5650    3.5245 H   0  0  0  0  0  0  0  0  0  0  0  0
   12.5629  -77.5757    5.2641 H   0  0  0  0  0  0  0  0  0  0  0  0
   11.4432  -74.4413    7.6203 H   0  0  0  0  0  0  0  0  0  0  0  0
   12.3551  -72.4218    6.0670 H   0  0  0  0  0  0  0  0  0  0  0  0
   13.2364  -72.8345    4.7555 H   0  0  0  0  0  0  0  0  0  0  0  0
   14.1624  -71.9331    7.1245 H   0  0  0  0  0  0  0  0  0  0  0  0
   15.0430  -71.5091    4.9288 H   0  0  0  0  0  0  0  0  0  0  0  0
   15.6734  -73.0152    4.9582 H   0  0  0  0  0  0  0  0  0  0  0  0
   17.3440  -71.5598    5.6965 H   0  0  0  0  0  0  0  0  0  0  0  0
   16.3234  -70.8653    6.7654 H   0  0  0  0  0  0  0  0  0  0  0  0
   17.7025  -71.2858    9.4447 H   0  0  0  0  0  0  0  0  0  0  0  0
   19.8953  -71.0634   10.3713 H   0  0  0  0  0  0  0  0  0  0  0  0
   21.7544  -72.1872    9.3707 H   0  0  0  0  0  0  0  0  0  0  0  0
   19.2199  -73.7767    6.4888 H   0  0  0  0  0  0  0  0  0  0  0  0
   14.8385  -74.6204    6.4794 H   0  0  0  0  0  0  0  0  0  0  0  0
   14.1291  -74.1065    7.8576 H   0  0  0  0  0  0  0  0  0  0  0  0
   15.9849  -73.7990    3.6128 H   0  0  0  0  0  0  0  0  0  0  0  0
   18.2898  -74.0866    4.2071 H   0  0  0  0  0  0  0  0  0  0  0  0
  1  2  3  0  0  0  0
  2  3  1  0  0  0  0
  3  4  2  0  0  0  0
  4  5  1  0  0  0  0
  5  6  2  0  0  0  0
  6  7  1  0  0  0  0
  7  8  1  0  0  0  0
  8  9  1  0  0  0  0
  9 10  2  0  0  0  0
 10 11  1  0  0  0  0
 11 12  2  0  0  0  0
 12 13  1  0  0  0  0
 13 14  1  0  0  0  0
 14 15  1  0  0  0  0
 15 16  1  0  0  0  0
 16 17  1  0  0  0  0
 17 18  1  0  0  0  0
 18 19  2  0  0  0  0
 19 20  1  0  0  0  0
 20 21  2  0  0  0  0
 21 22  1  0  0  0  0
 22 23  1  0  0  0  0
 22 24  2  0  0  0  0
 17 25  1  0  0  0  0
 25 26  2  0  0  0  0
 25 27  1  0  0  0  0
  6 28  1  0  0  0  0
 28 29  2  0  0  0  0
 29  3  1  0  0  0  0
 12  8  1  0  0  0  0
 27 14  1  0  0  0  0
 24 18  1  0  0  0  0
  4 30  1  0  0  0  0
  5 31  1  0  0  0  0
  7 32  1  0  0  0  0
  7 33  1  0  0  0  0
  9 34  1  0  0  0  0
 11 35  1  0  0  0  0
 13 36  1  0  0  0  0
 13 37  1  0  0  0  0
 14 38  1  0  0  0  0
 15 39  1  0  0  0  0
 15 40  1  0  0  0  0
 16 41  1  0  0  0  0
 16 42  1  0  0  0  0
 19 43  1  0  0  0  0
 20 44  1  0  0  0  0
 21 45  1  0  0  0  0
 24 46  1  0  0  0  0
 27 47  1  0  0  0  0
 27 48  1  0  0  0  0
 28 49  1  0  0  0  0
 29 50  1  0  0  0  0
M  CHG  1  14   1
M  END
>  <docking-score>
-21.51

$$$$
1S63_778_3
foFlexX   03192112153D 1   1.00000     0.00000     0
FlexX 4.5.0 fol007
 50 53  0  0  0  0            999 V2000
   15.4740  -68.2927    5.7662 N   0  0  0  0  0  0  0  0  0  0  0  0
   15.1233  -69.3517    5.4594 C   0  0  0  0  0  0  0  0  0  0  0  0
   14.6880  -70.6683    5.0739 C   0  0  0  0  0  0  0  0  0  0  0  0
   15.5850  -71.5269    4.4463 C   0  0  0  0  0  0  0  0  0  0  0  0
   15.1785  -72.8023    4.0688 C   0  0  0  0  0  0  0  0  0  0  0  0
   13.8712  -73.2018    4.3264 C   0  0  0  0  0  0  0  0  0  0  0  0
   13.4134  -74.5924    3.9177 C   0  0  0  0  0  0  0  0  0  0  0  0
   12.9676  -75.3684    5.0781 N   0  0  0  0  0  0  0  0  0  0  0  0
   11.9439  -75.0251    5.9122 C   0  0  0  0  0  0  0  0  0  0  0  0
   11.8415  -75.9624    6.8287 N   0  0  0  0  0  0  0  0  0  0  0  0
   12.7937  -76.9141    6.5956 C   0  0  0  0  0  0  0  0  0  0  0  0
   13.5086  -76.5466    5.4932 C   0  0  0  0  0  0  0  0  0  0  0  0
   14.6646  -77.3039    4.8607 C   0  0  0  0  0  0  0  0  0  0  0  0
   15.4537  -78.0919    5.8436 N   0  3  2  0  0  0  0  0  0  0  0  0
   15.9953  -77.2656    6.9349 C   0  0  0  0  0  0  0  0  0  0  0  0
   16.8114  -76.1156    6.3660 C   0  0  0  0  0  0  0  0  0  0  0  0
   17.7964  -76.5965    5.3799 N   0  0  0  0  0  0  0  0  0  0  0  0
   18.8516  -75.7626    5.0009 C   0  0  0  0  0  0  0  0  0  0  0  0
   20.0521  -75.8176    5.7018 C   0  0  0  0  0  0  0  0  0  0  0  0
   21.0997  -74.9862    5.3192 C   0  0  0  0  0  0  0  0  0  0  0  0
   20.9584  -74.1076    4.2506 C   0  0  0  0  0  0  0  0  0  0  0  0
   19.7495  -74.0691    3.5633 C   0  0  0  0  0  0  0  0  0  0  0  0
   19.5487  -72.9519    2.1925 Cl  0  0  0  0  0  0  0  0  0  0  0  0
   18.6889  -74.8915    3.9289 C   0  0  0  0  0  0  0  0  0  0  0  0
   17.6885  -77.8699    4.8006 C   0  0  0  0  0  0  0  0  0  0  0  0
   18.4827  -78.2403    3.9486 O   0  0  0  0  0  0  0  0  0  0  0  0
   16.5677  -78.8177    5.2134 C   0  0  0  0  0  0  0  0  0  0  0  0
   12.9715  -72.3458    4.9531 C   0  0  0  0  0  0  0  0  0  0  0  0
   13.3812  -71.0707    5.3301 C   0  0  0  0  0  0  0  0  0  0  0  0
   16.5219  -71.2270    4.2666 H   0  0  0  0  0  0  0  0  0  0  0  0
   15.8183  -73.4245    3.6177 H   0  0  0  0  0  0  0  0  0  0  0  0
   14.1746  -75.0702    3.4791 H   0  0  0  0  0  0  0  0  0  0  0  0
   12.6553  -74.5088    3.2709 H   0  0  0  0  0  0  0  0  0  0  0  0
   11.3734  -74.2070    5.8395 H   0  0  0  0  0  0  0  0  0  0  0  0
   12.9414  -77.7396    7.1403 H   0  0  0  0  0  0  0  0  0  0  0  0
   15.2734  -76.6446    4.4194 H   0  0  0  0  0  0  0  0  0  0  0  0
   14.2966  -77.9299    4.1731 H   0  0  0  0  0  0  0  0  0  0  0  0
   14.8415  -78.7696    6.2509 H   0  0  0  0  0  0  0  0  0  0  0  0
   16.5805  -77.8297    7.5174 H   0  0  0  0  0  0  0  0  0  0  0  0
   15.2399  -76.8981    7.4775 H   0  0  0  0  0  0  0  0  0  0  0  0
   16.1943  -75.4669    5.9206 H   0  0  0  0  0  0  0  0  0  0  0  0
   17.2941  -75.6578    7.1125 H   0  0  0  0  0  0  0  0  0  0  0  0
   20.1605  -76.4470    6.4713 H   0  0  0  0  0  0  0  0  0  0  0  0
   21.9652  -75.0209    5.8189 H   0  0  0  0  0  0  0  0  0  0  0  0
   21.7148  -73.5120    3.9802 H   0  0  0  0  0  0  0  0  0  0  0  0
   17.8235  -74.8570    3.4291 H   0  0  0  0  0  0  0  0  0  0  0  0
   16.2283  -79.2929    4.4017 H   0  0  0  0  0  0  0  0  0  0  0  0
   16.9297  -79.4856    5.8637 H   0  0  0  0  0  0  0  0  0  0  0  0
   12.0344  -72.6455    5.1319 H   0  0  0  0  0  0  0  0  0  0  0  0
   12.7414  -70.4486    5.7814 H   0  0  0  0  0  0  0  0  0  0  0  0
  1  2  3  0  0  0  0
  2  3  1  0  0  0  0
  3  4  2  0  0  0  0
  4  5  1  0  0  0  0
  5  6  2  0  0  0  0
  6  7  1  0  0  0  0
  7  8  1  0  0  0  0
  8  9  1  0  0  0  0
  9 10  2  0  0  0  0
 10 11  1  0  0  0  0
 11 12  2  0  0  0  0
 12 13  1  0  0  0  0
 13 14  1  0  0  0  0
 14 15  1  0  0  0  0
 15 16  1  0  0  0  0
 16 17  1  0  0  0  0
 17 18  1  0  0  0  0
 18 19  2  0  0  0  0
 19 20  1  0  0  0  0
 20 21  2  0  0  0  0
 21 22  1  0  0  0  0
 22 23  1  0  0  0  0
 22 24  2  0  0  0  0
 17 25  1  0  0  0  0
 25 26  2  0  0  0  0
 25 27  1  0  0  0  0
  6 28  1  0  0  0  0
 28 29  2  0  0  0  0
 29  3  1  0  0  0  0
 12  8  1  0  0  0  0
 27 14  1  0  0  0  0
 24 18  1  0  0  0  0
  4 30  1  0  0  0  0
  5 31  1  0  0  0  0
  7 32  1  0  0  0  0
  7 33  1  0  0  0  0
  9 34  1  0  0  0  0
 11 35  1  0  0  0  0
 13 36  1  0  0  0  0
 13 37  1  0  0  0  0
 14 38  1  0  0  0  0
 15 39  1  0  0  0  0
 15 40  1  0  0  0  0
 16 41  1  0  0  0  0
 16 42  1  0  0  0  0
 19 43  1  0  0  0  0
 20 44  1  0  0  0  0
 21 45  1  0  0  0  0
 24 46  1  0  0  0  0
 27 47  1  0  0  0  0
 27 48  1  0  0  0  0
 28 49  1  0  0  0  0
 29 50  1  0  0  0  0
M  CHG  1  14   1
M  END
>  <docking-score>
-20.76

$$$$
3E37_ED5_1
foFlexX   03192112153D 1   1.00000     0.00000     0
FlexX 4.5.0 fol007
 85 88  0  0  0  0            999 V2000
   17.6335  -72.1644    7.7151 C   0  0  0  0  0  0  0  0  0  0  0  0
   18.6015  -73.2319    7.2316 C   0  0  0  0  0  0  0  0  0  0  0  0
   19.9392  -72.8851    7.0714 C   0  0  0  0  0  0  0  0  0  0  0  0
   20.8447  -73.8439    6.6300 C   0  0  0  0  0  0  0  0  0  0  0  0
   20.4096  -75.1358    6.3532 C   0  0  0  0  0  0  0  0  0  0  0  0
   19.0723  -75.4843    6.5127 C   0  0  0  0  0  0  0  0  0  0  0  0
   18.1664  -74.5247    6.9540 C   0  0  0  0  0  0  0  0  0  0  0  0
   16.4610  -74.9884    7.1520 S   0  0  0  0  0  0  0  0  0  0  0  0
   16.3627  -76.4809    6.9994 O   0  0  0  0  0  0  0  0  0  0  0  0
   15.9916  -74.6596    8.5418 O   0  0  0  0  0  0  0  0  0  0  0  0
   15.4023  -74.2560    5.9606 N   0  0  0  0  0  0  0  0  0  0  0  0
   14.6944  -73.0403    6.4021 C   0  0  0  0  0  0  0  0  0  0  0  0
   14.1098  -72.2949    5.1957 C   0  0  0  0  0  0  0  0  0  0  0  0
   12.8869  -71.5688    5.5715 N   0  0  0  0  0  0  0  0  0  0  0  0
   11.7464  -72.3370    6.1000 C   0  0  0  0  0  0  0  0  0  0  0  0
   12.0469  -73.8279    6.1124 C   0  0  0  0  0  0  0  0  0  0  0  0
   12.0514  -74.6322    7.2140 C   0  0  0  0  0  0  0  0  0  0  0  0
   12.3648  -75.8885    6.7871 N   0  0  0  0  0  0  0  0  0  0  0  0
   12.5449  -75.8573    5.4840 C   0  0  0  0  0  0  0  0  0  0  0  0
   12.3485  -74.5908    5.0286 N   0  0  0  0  0  0  0  0  0  0  0  0
   12.4511  -74.1309    3.6356 C   0  0  0  0  0  0  0  0  0  0  0  0
   12.8244  -70.1243    5.4674 C   0  0  0  0  0  0  0  0  0  0  0  0
   13.9939  -69.3801    5.5851 C   0  0  0  0  0  0  0  0  0  0  0  0
   13.9483  -67.9934    5.4877 C   0  0  0  0  0  0  0  0  0  0  0  0
   12.7252  -67.3684    5.2717 C   0  0  0  0  0  0  0  0  0  0  0  0
   12.6616  -65.8537    5.1618 C   0  0  0  0  0  0  0  0  0  0  0  0
   12.6134  -64.7005    5.0782 N   0  0  0  0  0  0  0  0  0  0  0  0
   11.5530  -68.1082    5.1528 C   0  0  0  0  0  0  0  0  0  0  0  0
   11.6027  -69.4950    5.2513 C   0  0  0  0  0  0  0  0  0  0  0  0
   15.8797  -74.3637    4.5576 C   0  0  0  0  0  0  0  0  0  0  0  0
   16.7849  -73.2149    4.0204 C   0  0  0  0  0  0  0  0  0  0  0  0
   16.6022  -73.0302    2.5205 C   0  0  0  0  0  0  0  0  0  0  0  0
   17.6045  -71.9616    2.1191 C   0  0  0  0  0  0  0  0  0  0  0  0
   18.9544  -72.5219    2.2785 N   0  0  0  0  0  0  0  0  0  0  0  0
   20.0375  -71.9980    1.5621 C   0  0  0  0  0  0  0  0  0  0  0  0
   20.0460  -70.7790    1.2386 O   0  0  0  0  0  0  0  0  0  0  0  0
   21.1064  -72.8391    1.2117 O   0  0  0  0  0  0  0  0  0  0  0  0
   22.2846  -72.4617    0.4840 C   0  0  0  0  0  0  0  0  0  0  0  0
   22.9900  -71.3680    1.3003 C   0  0  0  0  0  0  0  0  0  0  0  0
   21.9097  -71.8884   -0.8960 C   0  0  0  0  0  0  0  0  0  0  0  0
   23.2376  -73.6628    0.3334 C   0  0  0  0  0  0  0  0  0  0  0  0
   19.1554  -73.6447    3.2090 C   0  0  0  0  0  0  0  0  0  0  0  0
   18.2425  -73.4174    4.4082 C   0  0  0  0  0  0  0  0  0  0  0  0
   16.7147  -72.5534    7.7825 H   0  0  0  0  0  0  0  0  0  0  0  0
   17.9226  -71.8347    8.6138 H   0  0  0  0  0  0  0  0  0  0  0  0
   17.6263  -71.4028    7.0671 H   0  0  0  0  0  0  0  0  0  0  0  0
   20.2468  -71.9550    7.2717 H   0  0  0  0  0  0  0  0  0  0  0  0
   21.8084  -73.6047    6.5117 H   0  0  0  0  0  0  0  0  0  0  0  0
   21.0650  -75.8213    6.0363 H   0  0  0  0  0  0  0  0  0  0  0  0
   18.7652  -76.4146    6.3122 H   0  0  0  0  0  0  0  0  0  0  0  0
   15.3360  -72.4408    6.8807 H   0  0  0  0  0  0  0  0  0  0  0  0
   13.9528  -73.2974    7.0217 H   0  0  0  0  0  0  0  0  0  0  0  0
   13.8911  -72.9550    4.4771 H   0  0  0  0  0  0  0  0  0  0  0  0
   14.7864  -71.6425    4.8543 H   0  0  0  0  0  0  0  0  0  0  0  0
   10.9459  -72.1702    5.5243 H   0  0  0  0  0  0  0  0  0  0  0  0
   11.5542  -72.0351    7.0337 H   0  0  0  0  0  0  0  0  0  0  0  0
   11.8611  -74.3535    8.1553 H   0  0  0  0  0  0  0  0  0  0  0  0
   12.7887  -76.6435    4.9161 H   0  0  0  0  0  0  0  0  0  0  0  0
   12.2628  -73.1497    3.5938 H   0  0  0  0  0  0  0  0  0  0  0  0
   13.3738  -74.3081    3.2932 H   0  0  0  0  0  0  0  0  0  0  0  0
   11.7865  -74.6222    3.0726 H   0  0  0  0  0  0  0  0  0  0  0  0
   14.8672  -69.8420    5.7397 H   0  0  0  0  0  0  0  0  0  0  0  0
   14.7851  -67.4524    5.5720 H   0  0  0  0  0  0  0  0  0  0  0  0
   10.6800  -67.6460    4.9975 H   0  0  0  0  0  0  0  0  0  0  0  0
   10.7658  -70.0358    5.1673 H   0  0  0  0  0  0  0  0  0  0  0  0
   15.0729  -74.4108    3.9686 H   0  0  0  0  0  0  0  0  0  0  0  0
   16.3983  -75.2153    4.4813 H   0  0  0  0  0  0  0  0  0  0  0  0
   16.4789  -72.3702    4.4596 H   0  0  0  0  0  0  0  0  0  0  0  0
   15.6705  -72.7300    2.3161 H   0  0  0  0  0  0  0  0  0  0  0  0
   16.7905  -73.8853    2.0374 H   0  0  0  0  0  0  0  0  0  0  0  0
   17.4566  -71.6986    1.1657 H   0  0  0  0  0  0  0  0  0  0  0  0
   17.4986  -71.1592    2.7064 H   0  0  0  0  0  0  0  0  0  0  0  0
   23.2327  -71.7285    2.2010 H   0  0  0  0  0  0  0  0  0  0  0  0
   23.8195  -71.0783    0.8227 H   0  0  0  0  0  0  0  0  0  0  0  0
   22.3771  -70.5853    1.4086 H   0  0  0  0  0  0  0  0  0  0  0  0
   21.3310  -71.0817   -0.7758 H   0  0  0  0  0  0  0  0  0  0  0  0
   22.7418  -71.6315   -1.3875 H   0  0  0  0  0  0  0  0  0  0  0  0
   21.4128  -72.5798   -1.4204 H   0  0  0  0  0  0  0  0  0  0  0  0
   22.7729  -74.3971   -0.1614 H   0  0  0  0  0  0  0  0  0  0  0  0
   24.0512  -73.3810   -0.1752 H   0  0  0  0  0  0  0  0  0  0  0  0
   23.5074  -73.9898    1.2391 H   0  0  0  0  0  0  0  0  0  0  0  0
   20.1094  -73.6740    3.5072 H   0  0  0  0  0  0  0  0  0  0  0  0
   18.9200  -74.5065    2.7596 H   0  0  0  0  0  0  0  0  0  0  0  0
   18.3038  -74.2137    5.0101 H   0  0  0  0  0  0  0  0  0  0  0  0
   18.5572  -72.6043    4.8980 H   0  0  0  0  0  0  0  0  0  0  0  0
  1  2  1  0  0  0  0
  2  3  2  0  0  0  0
  3  4  1  0  0  0  0
  4  5  2  0  0  0  0
  5  6  1  0  0  0  0
  6  7  2  0  0  0  0
  7  8  1  0  0  0  0
  8  9  2  0  0  0  0
  8 10  2  0  0  0  0
  8 11  1  0  0  0  0
 11 12  1  0  0  0  0
 12 13  1  0  0  0  0
 13 14  1  0  0  0  0
 14 15  1  0  0  0  0
 15 16  1  0  0  0  0
 16 17  2  0  0  0  0
 17 18  1  0  0  0  0
 18 19  2  0  0  0  0
 19 20  1  0  0  0  0
 20 21  1  0  0  0  0
 14 22  1  0  0  0  0
 22 23  2  0  0  0  0
 23 24  1  0  0  0  0
 24 25  2  0  0  0  0
 25 26  1  0  0  0  0
 26 27  3  0  0  0  0
 25 28  1  0  0  0  0
 28 29  2  0  0  0  0
 11 30  1  0  0  0  0
 30 31  1  0  0  0  0
 31 32  1  0  0  0  0
 32 33  1  0  0  0  0
 33 34  1  0  0  0  0
 34 35  1  0  0  0  0
 35 36  2  0  0  0  0
 35 37  1  0  0  0  0
 37 38  1  0  0  0  0
 38 39  1  0  0  0  0
 38 40  1  0  0  0  0
 38 41  1  0  0  0  0
 34 42  1  0  0  0  0
 42 43  1  0  0  0  0
  7  2  1  0  0  0  0
 20 16  1  0  0  0  0
 29 22  1  0  0  0  0
 43 31  1  0  0  0  0
  1 44  1  0  0  0  0
  1 45  1  0  0  0  0
  1 46  1  0  0  0  0
  3 47  1  0  0  0  0
  4 48  1  0  0  0  0
  5 49  1  0  0  0  0
  6 50  1  0  0  0  0
 12 51  1  0  0  0  0
 12 52  1  0  0  0  0
 13 53  1  0  0  0  0
 13 54  1  0  0  0  0
 15 55  1  0  0  0  0
 15 56  1  0  0  0  0
 17 57  1  0  0  0  0
 19 58  1  0  0  0  0
 21 59  1  0  0  0  0
 21 60  1  0  0  0  0
 21 61  1  0  0  0  0
 23 62  1  0  0  0  0
 24 63  1  0  0  0  0
 28 64  1  0  0  0  0
 29 65  1  0  0  0  0
 30 66  1  0  0  0  0
 30 67  1  0  0  0  0
 31 68  1  0  0  0  0
 32 69  1  0  0  0  0
 32 70  1  0  0  0  0
 33 71  1  0  0  0  0
 33 72  1  0  0  0  0
 39 73  1  0  0  0  0
 39 74  1  0  0  0  0
 39 75  1  0  0  0  0
 40 76  1  0  0  0  0
 40 77  1  0  0  0  0
 40 78  1  0  0  0  0
 41 79  1  0  0  0  0
 41 80  1  0  0  0  0
 41 81  1  0  0  0  0
 42 82  1  0  0  0  0
 42 83  1  0  0  0  0
 43 84  1  0  0  0  0
 43 85  1  0  0  0  0
M  END
>  <docking-score>
-18.05

$$$$
3E37_ED5_2
foFlexX   03192112153D 1   1.00000     0.00000     0
FlexX 4.5.0 fol007
 85 88  0  0  0  0            999 V2000
   18.7435  -76.4216    5.8232 C   0  0  0  0  0  0  0  0  0  0  0  0
   19.0989  -75.0607    6.3995 C   0  0  0  0  0  0  0  0  0  0  0  0
   20.4171  -74.6269    6.3015 C   0  0  0  0  0  0  0  0  0  0  0  0
   20.7676  -73.3856    6.8212 C   0  0  0  0  0  0  0  0  0  0  0  0
   19.8036  -72.5904    7.4321 C   0  0  0  0  0  0  0  0  0  0  0  0
   18.4850  -73.0225    7.5312 C   0  0  0  0  0  0  0  0  0  0  0  0
   18.1346  -74.2648    7.0114 C   0  0  0  0  0  0  0  0  0  0  0  0
   16.4444  -74.8006    7.1472 S   0  0  0  0  0  0  0  0  0  0  0  0
   16.4124  -76.2932    6.9687 O   0  0  0  0  0  0  0  0  0  0  0  0
   15.9180  -74.5143    8.5258 O   0  0  0  0  0  0  0  0  0  0  0  0
   15.3946  -74.0923    5.9334 N   0  0  0  0  0  0  0  0  0  0  0  0
   14.6237  -72.9139    6.3703 C   0  0  0  0  0  0  0  0  0  0  0  0
   14.0474  -72.1730    5.1571 C   0  0  0  0  0  0  0  0  0  0  0  0
   12.7843  -71.5036    5.5042 N   0  0  0  0  0  0  0  0  0  0  0  0
   11.6603  -72.3262    5.9837 C   0  0  0  0  0  0  0  0  0  0  0  0
   12.0213  -73.8036    5.9831 C   0  0  0  0  0  0  0  0  0  0  0  0
   12.0241  -74.6252    7.0719 C   0  0  0  0  0  0  0  0  0  0  0  0
   12.4023  -75.8605    6.6363 N   0  0  0  0  0  0  0  0  0  0  0  0
   12.6222  -75.8005    5.3403 C   0  0  0  0  0  0  0  0  0  0  0  0
   12.3883  -74.5356    4.8981 N   0  0  0  0  0  0  0  0  0  0  0  0
   12.5160  -74.0489    3.5164 C   0  0  0  0  0  0  0  0  0  0  0  0
   12.6658  -70.0613    5.4201 C   0  0  0  0  0  0  0  0  0  0  0  0
   13.7993  -69.2722    5.5869 C   0  0  0  0  0  0  0  0  0  0  0  0
   13.6998  -67.8871    5.5092 C   0  0  0  0  0  0  0  0  0  0  0  0
   12.4593  -67.3088    5.2633 C   0  0  0  0  0  0  0  0  0  0  0  0
   12.3370  -65.7964    5.1746 C   0  0  0  0  0  0  0  0  0  0  0  0
   12.2440  -64.6448    5.1070 N   0  0  0  0  0  0  0  0  0  0  0  0
   11.3230  -68.0937    5.0954 C   0  0  0  0  0  0  0  0  0  0  0  0
   11.4266  -69.4787    5.1742 C   0  0  0  0  0  0  0  0  0  0  0  0
   15.9203  -74.1573    4.5451 C   0  0  0  0  0  0  0  0  0  0  0  0
   16.7940  -72.9638    4.0550 C   0  0  0  0  0  0  0  0  0  0  0  0
   16.6515  -72.7619    2.5530 C   0  0  0  0  0  0  0  0  0  0  0  0
   17.6211  -71.6470    2.2006 C   0  0  0  0  0  0  0  0  0  0  0  0
   18.9873  -72.1545    2.3950 N   0  0  0  0  0  0  0  0  0  0  0  0
   20.0700  -71.5752    1.7221 C   0  0  0  0  0  0  0  0  0  0  0  0
   20.0386  -70.3517    1.4176 O   0  0  0  0  0  0  0  0  0  0  0  0
   21.1832  -72.3662    1.3936 O   0  0  0  0  0  0  0  0  0  0  0  0
   22.1138  -72.1269    0.3274 C   0  0  0  0  0  0  0  0  0  0  0  0
   23.1000  -71.0564    0.8188 C   0  0  0  0  0  0  0  0  0  0  0  0
   21.3839  -71.5951   -0.9208 C   0  0  0  0  0  0  0  0  0  0  0  0
   22.8983  -73.4101   -0.0066 C   0  0  0  0  0  0  0  0  0  0  0  0
   19.2047  -73.2834    3.3142 C   0  0  0  0  0  0  0  0  0  0  0  0
   18.2457  -73.1133    4.4867 C   0  0  0  0  0  0  0  0  0  0  0  0
   17.7698  -76.5997    5.9652 H   0  0  0  0  0  0  0  0  0  0  0  0
   18.9449  -76.4317    4.8437 H   0  0  0  0  0  0  0  0  0  0  0  0
   19.2821  -77.1286    6.2815 H   0  0  0  0  0  0  0  0  0  0  0  0
   21.1063  -75.2025    5.8614 H   0  0  0  0  0  0  0  0  0  0  0  0
   21.7125  -73.0647    6.7557 H   0  0  0  0  0  0  0  0  0  0  0  0
   20.0611  -71.6985    7.8040 H   0  0  0  0  0  0  0  0  0  0  0  0
   17.7962  -72.4465    7.9714 H   0  0  0  0  0  0  0  0  0  0  0  0
   15.2245  -72.2969    6.8784 H   0  0  0  0  0  0  0  0  0  0  0  0
   13.8740  -73.2112    6.9616 H   0  0  0  0  0  0  0  0  0  0  0  0
   13.8790  -72.8295    4.4218 H   0  0  0  0  0  0  0  0  0  0  0  0
   14.7070  -71.4880    4.8477 H   0  0  0  0  0  0  0  0  0  0  0  0
   10.8722  -72.1826    5.3851 H   0  0  0  0  0  0  0  0  0  0  0  0
   11.4263  -72.0478    6.9153 H   0  0  0  0  0  0  0  0  0  0  0  0
   11.7927  -74.3701    8.0107 H   0  0  0  0  0  0  0  0  0  0  0  0
   12.9160  -76.5666    4.7687 H   0  0  0  0  0  0  0  0  0  0  0  0
   12.2888  -73.0756    3.4835 H   0  0  0  0  0  0  0  0  0  0  0  0
   13.4556  -74.1828    3.2013 H   0  0  0  0  0  0  0  0  0  0  0  0
   11.8904  -74.5574    2.9247 H   0  0  0  0  0  0  0  0  0  0  0  0
   14.6856  -69.7007    5.7626 H   0  0  0  0  0  0  0  0  0  0  0  0
   14.5105  -67.3140    5.6288 H   0  0  0  0  0  0  0  0  0  0  0  0
   10.4371  -67.6648    4.9190 H   0  0  0  0  0  0  0  0  0  0  0  0
   10.6158  -70.0517    5.0550 H   0  0  0  0  0  0  0  0  0  0  0  0
   15.1352  -74.2274    3.9296 H   0  0  0  0  0  0  0  0  0  0  0  0
   16.4757  -74.9858    4.4727 H   0  0  0  0  0  0  0  0  0  0  0  0
   16.4397  -72.1397    4.4969 H   0  0  0  0  0  0  0  0  0  0  0  0
   15.7151  -72.4966    2.3232 H   0  0  0  0  0  0  0  0  0  0  0  0
   16.8900  -73.6005    2.0633 H   0  0  0  0  0  0  0  0  0  0  0  0
   17.4929  -71.3745    1.2470 H   0  0  0  0  0  0  0  0  0  0  0  0
   17.4637  -70.8594    2.7963 H   0  0  0  0  0  0  0  0  0  0  0  0
   23.5753  -71.3896    1.6331 H   0  0  0  0  0  0  0  0  0  0  0  0
   23.7670  -70.8623    0.0995 H   0  0  0  0  0  0  0  0  0  0  0  0
   22.5996  -70.2203    1.0438 H   0  0  0  0  0  0  0  0  0  0  0  0
   20.9212  -70.7375   -0.6963 H   0  0  0  0  0  0  0  0  0  0  0  0
   22.0472  -71.4346   -1.6518 H   0  0  0  0  0  0  0  0  0  0  0  0
   20.7095  -72.2681   -1.2246 H   0  0  0  0  0  0  0  0  0  0  0  0
   22.2605  -74.1269   -0.2884 H   0  0  0  0  0  0  0  0  0  0  0  0
   23.5405  -73.2241   -0.7502 H   0  0  0  0  0  0  0  0  0  0  0  0
   23.4032  -73.7122    0.8021 H   0  0  0  0  0  0  0  0  0  0  0  0
   20.1492  -73.2789    3.6427 H   0  0  0  0  0  0  0  0  0  0  0  0
   19.0194  -74.1465    2.8444 H   0  0  0  0  0  0  0  0  0  0  0  0
   18.3206  -73.9163    5.0780 H   0  0  0  0  0  0  0  0  0  0  0  0
   18.5110  -72.2964    4.9987 H   0  0  0  0  0  0  0  0  0  0  0  0
  1  2  1  0  0  0  0
  2  3  2  0  0  0  0
  3  4  1  0  0  0  0
  4  5  2  0  0  0  0
  5  6  1  0  0  0  0
  6  7  2  0  0  0  0
  7  8  1  0  0  0  0
  8  9  2  0  0  0  0
  8 10  2  0  0  0  0
  8 11  1  0  0  0  0
 11 12  1  0  0  0  0
 12 13  1  0  0  0  0
 13 14  1  0  0  0  0
 14 15  1  0  0  0  0
 15 16  1  0  0  0  0
 16 17  2  0  0  0  0
 17 18  1  0  0  0  0
 18 19  2  0  0  0  0
 19 20  1  0  0  0  0
 20 21  1  0  0  0  0
 14 22  1  0  0  0  0
 22 23  2  0  0  0  0
 23 24  1  0  0  0  0
 24 25  2  0  0  0  0
 25 26  1  0  0  0  0
 26 27  3  0  0  0  0
 25 28  1  0  0  0  0
 28 29  2  0  0  0  0
 11 30  1  0  0  0  0
 30 31  1  0  0  0  0
 31 32  1  0  0  0  0
 32 33  1  0  0  0  0
 33 34  1  0  0  0  0
 34 35  1  0  0  0  0
 35 36  2  0  0  0  0
 35 37  1  0  0  0  0
 37 38  1  0  0  0  0
 38 39  1  0  0  0  0
 38 40  1  0  0  0  0
 38 41  1  0  0  0  0
 34 42  1  0  0  0  0
 42 43  1  0  0  0  0
  7  2  1  0  0  0  0
 20 16  1  0  0  0  0
 29 22  1  0  0  0  0
 43 31  1  0  0  0  0
  1 44  1  0  0  0  0
  1 45  1  0  0  0  0
  1 46  1  0  0  0  0
  3 47  1  0  0  0  0
  4 48  1  0  0  0  0
  5 49  1  0  0  0  0
  6 50  1  0  0  0  0
 12 51  1  0  0  0  0
 12 52  1  0  0  0  0
 13 53  1  0  0  0  0
 13 54  1  0  0  0  0
 15 55  1  0  0  0  0
 15 56  1  0  0  0  0
 17 57  1  0  0  0  0
 19 58  1  0  0  0  0
 21 59  1  0  0  0  0
 21 60  1  0  0  0  0
 21 61  1  0  0  0  0
 23 62  1  0  0  0  0
 24 63  1  0  0  0  0
 28 64  1  0  0  0  0
 29 65  1  0  0  0  0
 30 66  1  0  0  0  0
 30 67  1  0  0  0  0
 31 68  1  0  0  0  0
 32 69  1  0  0  0  0
 32 70  1  0  0  0  0
 33 71  1  0  0  0  0
 33 72  1  0  0  0  0
 39 73  1  0  0  0  0
 39 74  1  0  0  0  0
 39 75  1  0  0  0  0
 40 76  1  0  0  0  0
 40 77  1  0  0  0  0
 40 78  1  0  0  0  0
 41 79  1  0  0  0  0
 41 80  1  0  0  0  0
 41 81  1  0  0  0  0
 42 82  1  0  0  0  0
 42 83  1  0  0  0  0
 43 84  1  0  0  0  0
 43 85  1  0  0  0  0
M  END
>  <docking-score>
-17.64

$$$$
3E37_ED5_3
foFlexX   03192112153D 1   1.00000     0.00000     0
FlexX 4.5.0 fol007
 85 88  0  0  0  0            999 V2000
   17.4416  -72.1848    7.8814 C   0  0  0  0  0  0  0  0  0  0  0  0
   18.4265  -73.2577    7.4461 C   0  0  0  0  0  0  0  0  0  0  0  0
   19.7692  -72.9125    7.3308 C   0  0  0  0  0  0  0  0  0  0  0  0
   20.6900  -73.8762    6.9341 C   0  0  0  0  0  0  0  0  0  0  0  0
   20.2650  -75.1713    6.6568 C   0  0  0  0  0  0  0  0  0  0  0  0
   18.9227  -75.5182    6.7713 C   0  0  0  0  0  0  0  0  0  0  0  0
   18.0015  -74.5537    7.1679 C   0  0  0  0  0  0  0  0  0  0  0  0
   16.2899  -75.0154    7.3090 S   0  0  0  0  0  0  0  0  0  0  0  0
   16.1969  -76.5097    7.1703 O   0  0  0  0  0  0  0  0  0  0  0  0
   15.7701  -74.6705    8.6767 O   0  0  0  0  0  0  0  0  0  0  0  0
   15.2755  -74.2972    6.0711 N   0  0  0  0  0  0  0  0  0  0  0  0
   14.5523  -73.0766    6.4722 C   0  0  0  0  0  0  0  0  0  0  0  0
   14.0123  -72.3455    5.2366 C   0  0  0  0  0  0  0  0  0  0  0  0
   12.7767  -71.6153    5.5590 N   0  0  0  0  0  0  0  0  0  0  0  0
   11.6175  -72.3775    6.0544 C   0  0  0  0  0  0  0  0  0  0  0  0
   11.9169  -73.8681    6.0952 C   0  0  0  0  0  0  0  0  0  0  0  0
   11.8811  -74.6595    7.2056 C   0  0  0  0  0  0  0  0  0  0  0  0
   12.2096  -75.9207    6.8052 N   0  0  0  0  0  0  0  0  0  0  0  0
   12.4372  -75.9047    5.5093 C   0  0  0  0  0  0  0  0  0  0  0  0
   12.2578  -74.6435    5.0322 N   0  0  0  0  0  0  0  0  0  0  0  0
   12.4113  -74.2000    3.6386 C   0  0  0  0  0  0  0  0  0  0  0  0
   12.7183  -70.1722    5.4358 C   0  0  0  0  0  0  0  0  0  0  0  0
   13.8829  -69.4263    5.5874 C   0  0  0  0  0  0  0  0  0  0  0  0
   13.8412  -68.0409    5.4722 C   0  0  0  0  0  0  0  0  0  0  0  0
   12.6269  -67.4187    5.2044 C   0  0  0  0  0  0  0  0  0  0  0  0
   12.5677  -65.9055    5.0746 C   0  0  0  0  0  0  0  0  0  0  0  0
   12.5228  -64.7533    4.9757 N   0  0  0  0  0  0  0  0  0  0  0  0
   11.4597  -68.1602    5.0514 C   0  0  0  0  0  0  0  0  0  0  0  0
   11.5055  -69.5457    5.1678 C   0  0  0  0  0  0  0  0  0  0  0  0
   15.8039  -74.4213    4.6879 C   0  0  0  0  0  0  0  0  0  0  0  0
   16.7284  -73.2786    4.1707 C   0  0  0  0  0  0  0  0  0  0  0  0
   18.1700  -73.6337    4.5166 C   0  0  0  0  0  0  0  0  0  0  0  0
   19.1099  -73.5492    3.3207 C   0  0  0  0  0  0  0  0  0  0  0  0
   18.8156  -72.3974    2.4513 N   0  0  0  0  0  0  0  0  0  0  0  0
   19.8191  -71.7343    1.7328 C   0  0  0  0  0  0  0  0  0  0  0  0
   19.7007  -70.5050    1.4769 O   0  0  0  0  0  0  0  0  0  0  0  0
   20.9503  -72.4487    1.3050 O   0  0  0  0  0  0  0  0  0  0  0  0
   21.7946  -72.1207    0.1917 C   0  0  0  0  0  0  0  0  0  0  0  0
   22.7505  -71.0126    0.6593 C   0  0  0  0  0  0  0  0  0  0  0  0
   20.9565  -71.5897   -0.9870 C   0  0  0  0  0  0  0  0  0  0  0  0
   22.6249  -73.3448   -0.2391 C   0  0  0  0  0  0  0  0  0  0  0  0
   17.4423  -71.8961    2.3094 C   0  0  0  0  0  0  0  0  0  0  0  0
   16.5052  -73.0317    2.6855 C   0  0  0  0  0  0  0  0  0  0  0  0
   16.5209  -72.5732    7.9198 H   0  0  0  0  0  0  0  0  0  0  0  0
   17.6978  -71.8445    8.7862 H   0  0  0  0  0  0  0  0  0  0  0  0
   17.4582  -71.4308    7.2247 H   0  0  0  0  0  0  0  0  0  0  0  0
   20.0695  -71.9800    7.5314 H   0  0  0  0  0  0  0  0  0  0  0  0
   21.6574  -73.6381    6.8483 H   0  0  0  0  0  0  0  0  0  0  0  0
   20.9314  -75.8604    6.3720 H   0  0  0  0  0  0  0  0  0  0  0  0
   18.6230  -76.4509    6.5707 H   0  0  0  0  0  0  0  0  0  0  0  0
   15.1761  -72.4715    6.9669 H   0  0  0  0  0  0  0  0  0  0  0  0
   13.7885  -73.3266    7.0673 H   0  0  0  0  0  0  0  0  0  0  0  0
   13.8199  -73.0141    4.5183 H   0  0  0  0  0  0  0  0  0  0  0  0
   14.7011  -71.6970    4.9126 H   0  0  0  0  0  0  0  0  0  0  0  0
   10.8386  -72.2177    5.4480 H   0  0  0  0  0  0  0  0  0  0  0  0
   11.3914  -72.0647    6.9769 H   0  0  0  0  0  0  0  0  0  0  0  0
   11.6566  -74.3698    8.1360 H   0  0  0  0  0  0  0  0  0  0  0  0
   12.7013  -76.6974    4.9599 H   0  0  0  0  0  0  0  0  0  0  0  0
   12.2249  -73.2193    3.5785 H   0  0  0  0  0  0  0  0  0  0  0  0
   13.3459  -74.3810    3.3322 H   0  0  0  0  0  0  0  0  0  0  0  0
   11.7677  -74.6979    3.0574 H   0  0  0  0  0  0  0  0  0  0  0  0
   14.7499  -69.8863    5.7792 H   0  0  0  0  0  0  0  0  0  0  0  0
   14.6745  -67.4988    5.5807 H   0  0  0  0  0  0  0  0  0  0  0  0
   10.5930  -67.6999    4.8589 H   0  0  0  0  0  0  0  0  0  0  0  0
   10.6721  -70.0876    5.0597 H   0  0  0  0  0  0  0  0  0  0  0  0
   15.0192  -74.4754    4.0704 H   0  0  0  0  0  0  0  0  0  0  0  0
   16.3247  -75.2736    4.6406 H   0  0  0  0  0  0  0  0  0  0  0  0
   16.4897  -72.4413    4.6626 H   0  0  0  0  0  0  0  0  0  0  0  0
   18.1910  -74.5680    4.8724 H   0  0  0  0  0  0  0  0  0  0  0  0
   18.4933  -73.0015    5.2207 H   0  0  0  0  0  0  0  0  0  0  0  0
   20.0484  -73.4663    3.6558 H   0  0  0  0  0  0  0  0  0  0  0  0
   19.0207  -74.3877    2.7831 H   0  0  0  0  0  0  0  0  0  0  0  0
   23.2956  -71.3454    1.4287 H   0  0  0  0  0  0  0  0  0  0  0  0
   23.3573  -70.7565   -0.0931 H   0  0  0  0  0  0  0  0  0  0  0  0
   22.2206  -70.2147    0.9466 H   0  0  0  0  0  0  0  0  0  0  0  0
   20.4630  -70.7680   -0.7017 H   0  0  0  0  0  0  0  0  0  0  0  0
   21.5607  -71.3668   -1.7520 H   0  0  0  0  0  0  0  0  0  0  0  0
   20.3016  -72.2895   -1.2724 H   0  0  0  0  0  0  0  0  0  0  0  0
   22.0104  -74.0870   -0.5065 H   0  0  0  0  0  0  0  0  0  0  0  0
   23.2059  -73.0973   -1.0145 H   0  0  0  0  0  0  0  0  0  0  0  0
   23.1974  -73.6446    0.5240 H   0  0  0  0  0  0  0  0  0  0  0  0
   17.2767  -71.6147    1.3642 H   0  0  0  0  0  0  0  0  0  0  0  0
   17.2977  -71.1169    2.9194 H   0  0  0  0  0  0  0  0  0  0  0  0
   15.5552  -72.7703    2.5148 H   0  0  0  0  0  0  0  0  0  0  0  0
   16.7247  -73.8531    2.1591 H   0  0  0  0  0  0  0  0  0  0  0  0
  1  2  1  0  0  0  0
  2  3  2  0  0  0  0
  3  4  1  0  0  0  0
  4  5  2  0  0  0  0
  5  6  1  0  0  0  0
  6  7  2  0  0  0  0
  7  8  1  0  0  0  0
  8  9  2  0  0  0  0
  8 10  2  0  0  0  0
  8 11  1  0  0  0  0
 11 12  1  0  0  0  0
 12 13  1  0  0  0  0
 13 14  1  0  0  0  0
 14 15  1  0  0  0  0
 15 16  1  0  0  0  0
 16 17  2  0  0  0  0
 17 18  1  0  0  0  0
 18 19  2  0  0  0  0
 19 20  1  0  0  0  0
 20 21  1  0  0  0  0
 14 22  1  0  0  0  0
 22 23  2  0  0  0  0
 23 24  1  0  0  0  0
 24 25  2  0  0  0  0
 25 26  1  0  0  0  0
 26 27  3  0  0  0  0
 25 28  1  0  0  0  0
 28 29  2  0  0  0  0
 11 30  1  0  0  0  0
 30 31  1  0  0  0  0
 31 32  1  0  0  0  0
 32 33  1  0  0  0  0
 33 34  1  0  0  0  0
 34 35  1  0  0  0  0
 35 36  2  0  0  0  0
 35 37  1  0  0  0  0
 37 38  1  0  0  0  0
 38 39  1  0  0  0  0
 38 40  1  0  0  0  0
 38 41  1  0  0  0  0
 34 42  1  0  0  0  0
 42 43  1  0  0  0  0
  7  2  1  0  0  0  0
 20 16  1  0  0  0  0
 29 22  1  0  0  0  0
 43 31  1  0  0  0  0
  1 44  1  0  0  0  0
  1 45  1  0  0  0  0
  1 46  1  0  0  0  0
  3 47  1  0  0  0  0
  4 48  1  0  0  0  0
  5 49  1  0  0  0  0
  6 50  1  0  0  0  0
 12 51  1  0  0  0  0
 12 52  1  0  0  0  0
 13 53  1  0  0  0  0
 13 54  1  0  0  0  0
 15 55  1  0  0  0  0
 15 56  1  0  0  0  0
 17 57  1  0  0  0  0
 19 58  1  0  0  0  0
 21 59  1  0  0  0  0
 21 60  1  0  0  0  0
 21 61  1  0  0  0  0
 23 62  1  0  0  0  0
 24 63  1  0  0  0  0
 28 64  1  0  0  0  0
 29 65  1  0  0  0  0
 30 66  1  0  0  0  0
 30 67  1  0  0  0  0
 31 68  1  0  0  0  0
 32 69  1  0  0  0  0
 32 70  1  0  0  0  0
 33 71  1  0  0  0  0
 33 72  1  0  0  0  0
 39 73  1  0  0  0  0
 39 74  1  0  0  0  0
 39 75  1  0  0  0  0
 40 76  1  0  0  0  0
 40 77  1  0  0  0  0
 40 78  1  0  0  0  0
 41 79  1  0  0  0  0
 41 80  1  0  0  0  0
 41 81  1  0  0  0  0
 42 82  1  0  0  0  0
 42 83  1  0  0  0  0
 43 84  1  0  0  0  0
 43 85  1  0  0  0  0
M  END
>  <docking-score>
-17.26

$$$$
2IEJ_S48_1
foFlexX   03192112153D 1   1.00000     0.00000     0
FlexX 4.5.0 fol007
 68 72  0  0  0  0            999 V2000
   10.9234  -67.5361    9.2274 C   0  0  0  0  0  0  0  0  0  0  0  0
   11.5813  -68.3073    8.2303 O   0  0  0  0  0  0  0  0  0  0  0  0
   11.7790  -67.8414    6.9284 C   0  0  0  0  0  0  0  0  0  0  0  0
   11.7258  -66.6046    6.6829 O   0  0  0  0  0  0  0  0  0  0  0  0
   11.9768  -68.8072    5.7926 C   0  0  0  0  0  0  0  0  0  0  0  0
   13.3901  -69.1177    5.4803 N   0  0  0  0  0  0  0  0  0  0  0  0
   13.8539  -70.5282    5.3857 C   0  0  2  0  0  0  0  0  0  0  0  0
   15.3542  -70.5836    5.6401 C   0  0  0  0  0  0  0  0  0  0  0  0
   15.9057  -71.9758    5.3765 C   0  0  0  0  0  0  0  0  0  0  0  0
   17.1396  -72.2681    5.9227 C   0  0  0  0  0  0  0  0  0  0  0  0
   17.7001  -73.5199    5.6917 C   0  0  0  0  0  0  0  0  0  0  0  0
   18.9901  -73.8465    6.2647 C   0  0  0  0  0  0  0  0  0  0  0  0
   19.6529  -72.9015    7.0404 C   0  0  0  0  0  0  0  0  0  0  0  0
   20.8912  -73.2211    7.5872 C   0  0  0  0  0  0  0  0  0  0  0  0
   21.4595  -74.4698    7.3616 C   0  0  0  0  0  0  0  0  0  0  0  0
   20.7893  -75.4089    6.5840 C   0  0  0  0  0  0  0  0  0  0  0  0
   19.5505  -75.0985    6.0329 C   0  0  0  0  0  0  0  0  0  0  0  0
   17.0265  -74.4551    4.9146 C   0  0  0  0  0  0  0  0  0  0  0  0
   15.7829  -74.1131    4.3891 C   0  0  0  0  0  0  0  0  0  0  0  0
   15.1785  -72.8762    4.6036 C   0  0  0  0  0  0  0  0  0  0  0  0
   13.9079  -72.5541    4.1109 N   0  0  0  0  0  0  0  0  0  0  0  0
   12.9091  -73.5674    3.7381 C   0  0  0  0  0  0  0  0  0  0  0  0
   12.5545  -74.4359    4.9144 C   0  0  0  0  0  0  0  0  0  0  0  0
   12.1707  -75.7433    4.8546 C   0  0  0  0  0  0  0  0  0  0  0  0
   11.9473  -76.1508    6.1364 N   0  0  0  0  0  0  0  0  0  0  0  0
   12.1824  -75.1404    6.9459 C   0  0  0  0  0  0  0  0  0  0  0  0
   12.5693  -74.0572    6.2198 N   0  0  0  0  0  0  0  0  0  0  0  0
   12.9259  -72.7296    6.7422 C   0  0  0  0  0  0  0  0  0  0  0  0
   13.5532  -71.1383    4.0225 C   0  0  0  0  0  0  0  0  0  0  0  0
   14.1290  -68.0565    4.3002 S   0  0  0  0  0  0  0  0  0  0  0  0
   15.6154  -68.2743    4.2421 O   0  0  0  0  0  0  0  0  0  0  0  0
   13.8462  -66.6211    4.6456 O   0  0  0  0  0  0  0  0  0  0  0  0
   13.4473  -68.4065    2.7246 C   0  0  0  0  0  0  0  0  0  0  0  0
   14.0186  -68.0823    1.5323 C   0  0  0  0  0  0  0  0  0  0  0  0
   13.1599  -68.5355    0.5813 N   0  0  0  0  0  0  0  0  0  0  0  0
   13.3452  -68.4190   -0.8722 C   0  0  0  0  0  0  0  0  0  0  0  0
   12.0989  -69.1186    1.2030 C   0  0  0  0  0  0  0  0  0  0  0  0
   12.2638  -69.0461    2.5032 N   0  0  0  0  0  0  0  0  0  0  0  0
    9.9928  -67.3271    8.9271 H   0  0  0  0  0  0  0  0  0  0  0  0
   10.8894  -68.0550   10.0816 H   0  0  0  0  0  0  0  0  0  0  0  0
   11.4254  -66.6839    9.3748 H   0  0  0  0  0  0  0  0  0  0  0  0
   11.5564  -68.4153    4.9743 H   0  0  0  0  0  0  0  0  0  0  0  0
   11.5150  -69.6625    6.0276 H   0  0  0  0  0  0  0  0  0  0  0  0
   13.3890  -71.0670    6.0882 H   0  0  0  0  0  0  0  0  0  0  0  0
   15.8118  -69.9316    5.0356 H   0  0  0  0  0  0  0  0  0  0  0  0
   15.5328  -70.3370    6.5927 H   0  0  0  0  0  0  0  0  0  0  0  0
   17.6232  -71.5900    6.4761 H   0  0  0  0  0  0  0  0  0  0  0  0
   19.2444  -72.0033    7.2030 H   0  0  0  0  0  0  0  0  0  0  0  0
   21.3759  -72.5484    8.1462 H   0  0  0  0  0  0  0  0  0  0  0  0
   22.3499  -74.6929    7.7582 H   0  0  0  0  0  0  0  0  0  0  0  0
   21.1981  -76.3069    6.4213 H   0  0  0  0  0  0  0  0  0  0  0  0
   19.0658  -75.7710    5.4736 H   0  0  0  0  0  0  0  0  0  0  0  0
   17.4264  -75.3543    4.7367 H   0  0  0  0  0  0  0  0  0  0  0  0
   15.3003  -74.7880    3.8307 H   0  0  0  0  0  0  0  0  0  0  0  0
   13.2823  -74.1412    3.0090 H   0  0  0  0  0  0  0  0  0  0  0  0
   12.0836  -73.1076    3.4108 H   0  0  0  0  0  0  0  0  0  0  0  0
   12.0719  -76.2975    4.0281 H   0  0  0  0  0  0  0  0  0  0  0  0
   12.0909  -75.1651    7.9414 H   0  0  0  0  0  0  0  0  0  0  0  0
   13.1633  -72.1250    5.9818 H   0  0  0  0  0  0  0  0  0  0  0  0
   12.1480  -72.3479    7.2413 H   0  0  0  0  0  0  0  0  0  0  0  0
   13.7088  -72.8132    7.3586 H   0  0  0  0  0  0  0  0  0  0  0  0
   12.5818  -71.0388    3.8066 H   0  0  0  0  0  0  0  0  0  0  0  0
   14.0995  -70.6892    3.3154 H   0  0  0  0  0  0  0  0  0  0  0  0
   14.8878  -67.6097    1.3868 H   0  0  0  0  0  0  0  0  0  0  0  0
   12.5673  -68.8365   -1.3419 H   0  0  0  0  0  0  0  0  0  0  0  0
   13.4075  -67.4533   -1.1240 H   0  0  0  0  0  0  0  0  0  0  0  0
   14.1869  -68.8882   -1.1395 H   0  0  0  0  0  0  0  0  0  0  0  0
   11.3163  -69.5367    0.7417 H   0  0  0  0  0  0  0  0  0  0  0  0
  1  2  1  0  0  0  0
  2  3  1  0  0  0  0
  3  4  2  0  0  0  0
  3  5  1  0  0  0  0
  5  6  1  0  0  0  0
  6  7  1  0  0  0  0
  7  8  1  0  0  0  0
  8  9  1  0  0  0  0
  9 10  2  0  0  0  0
 10 11  1  0  0  0  0
 11 12  1  0  0  0  0
 12 13  2  0  0  0  0
 13 14  1  0  0  0  0
 14 15  2  0  0  0  0
 15 16  1  0  0  0  0
 16 17  2  0  0  0  0
 11 18  2  0  0  0  0
 18 19  1  0  0  0  0
 19 20  2  0  0  0  0
 20 21  1  0  0  0  0
 21 22  1  0  0  0  0
 22 23  1  0  0  0  0
 23 24  2  0  0  0  0
 24 25  1  0  0  0  0
 25 26  2  0  0  0  0
 26 27  1  0  0  0  0
 27 28  1  0  0  0  0
 21 29  1  0  0  0  0
  6 30  1  0  0  0  0
 30 31  2  0  0  0  0
 30 32  2  0  0  0  0
 30 33  1  0  0  0  0
 33 34  2  0  0  0  0
 34 35  1  0  0  0  0
 35 36  1  0  0  0  0
 35 37  1  0  0  0  0
 37 38  2  0  0  0  0
 29  7  1  0  0  0  0
 38 33  1  0  0  0  0
 20  9  1  0  0  0  0
 27 23  1  0  0  0  0
 17 12  1  0  0  0  0
  1 39  1  0  0  0  0
  1 40  1  0  0  0  0
  1 41  1  0  0  0  0
  5 42  1  0  0  0  0
  5 43  1  0  0  0  0
  7 44  1  0  0  0  0
  8 45  1  0  0  0  0
  8 46  1  0  0  0  0
 10 47  1  0  0  0  0
 13 48  1  0  0  0  0
 14 49  1  0  0  0  0
 15 50  1  0  0  0  0
 16 51  1  0  0  0  0
 17 52  1  0  0  0  0
 18 53  1  0  0  0  0
 19 54  1  0  0  0  0
 22 55  1  0  0  0  0
 22 56  1  0  0  0  0
 24 57  1  0  0  0  0
 26 58  1  0  0  0  0
 28 59  1  0  0  0  0
 28 60  1  0  0  0  0
 28 61  1  0  0  0  0
 29 62  1  0  0  0  0
 29 63  1  0  0  0  0
 34 64  1  0  0  0  0
 36 65  1  0  0  0  0
 36 66  1  0  0  0  0
 36 67  1  0  0  0  0
 37 68  1  0  0  0  0
M  END
>  <docking-score>
-19.26

$$$$
2IEJ_S48_2
foFlexX   03192112153D 1   1.00000     0.00000     0
FlexX 4.5.0 fol007
 68 72  0  0  0  0            999 V2000
   11.0880  -67.2944    9.2185 C   0  0  0  0  0  0  0  0  0  0  0  0
   11.6797  -68.0782    8.1903 O   0  0  0  0  0  0  0  0  0  0  0  0
   11.8370  -67.6094    6.8839 C   0  0  0  0  0  0  0  0  0  0  0  0
   11.8116  -66.3699    6.6480 O   0  0  0  0  0  0  0  0  0  0  0  0
   11.9576  -68.5728    5.7353 C   0  0  0  0  0  0  0  0  0  0  0  0
   13.3464  -68.9239    5.3623 N   0  0  0  0  0  0  0  0  0  0  0  0
   13.7625  -70.3471    5.2402 C   0  0  2  0  0  0  0  0  0  0  0  0
   15.2696  -70.4499    5.4312 C   0  0  0  0  0  0  0  0  0  0  0  0
   15.7667  -71.8563    5.1367 C   0  0  0  0  0  0  0  0  0  0  0  0
   17.0128  -72.1898    5.6290 C   0  0  0  0  0  0  0  0  0  0  0  0
   17.5245  -73.4564    5.3675 C   0  0  0  0  0  0  0  0  0  0  0  0
   18.8268  -73.8259    5.8841 C   0  0  0  0  0  0  0  0  0  0  0  0
   19.0877  -75.1566    6.1926 C   0  0  0  0  0  0  0  0  0  0  0  0
   20.3396  -75.5046    6.6886 C   0  0  0  0  0  0  0  0  0  0  0  0
   21.3184  -74.5346    6.8735 C   0  0  0  0  0  0  0  0  0  0  0  0
   21.0483  -73.2057    6.5624 C   0  0  0  0  0  0  0  0  0  0  0  0
   19.7993  -72.8479    6.0659 C   0  0  0  0  0  0  0  0  0  0  0  0
   16.7908  -74.3652    4.6140 C   0  0  0  0  0  0  0  0  0  0  0  0
   15.5373  -73.9819    4.1431 C   0  0  0  0  0  0  0  0  0  0  0  0
   14.9806  -72.7288    4.3899 C   0  0  0  0  0  0  0  0  0  0  0  0
   13.7010  -72.3647    3.9527 N   0  0  0  0  0  0  0  0  0  0  0  0
   12.6570  -73.3446    3.6163 C   0  0  0  0  0  0  0  0  0  0  0  0
   12.3254  -74.2101    4.8015 C   0  0  0  0  0  0  0  0  0  0  0  0
   11.8995  -75.5049    4.7503 C   0  0  0  0  0  0  0  0  0  0  0  0
   11.7174  -75.9143    6.0380 N   0  0  0  0  0  0  0  0  0  0  0  0
   12.0170  -74.9172    6.8427 C   0  0  0  0  0  0  0  0  0  0  0  0
   12.4062  -73.8412    6.1073 N   0  0  0  0  0  0  0  0  0  0  0  0
   12.8248  -72.5288    6.6218 C   0  0  0  0  0  0  0  0  0  0  0  0
   13.3865  -70.9382    3.8873 C   0  0  0  0  0  0  0  0  0  0  0  0
   14.0675  -67.8774    4.1583 S   0  0  0  0  0  0  0  0  0  0  0  0
   15.5429  -68.1398    4.0367 O   0  0  0  0  0  0  0  0  0  0  0  0
   13.8436  -66.4365    4.5235 O   0  0  0  0  0  0  0  0  0  0  0  0
   13.3103  -68.1955    2.6108 C   0  0  0  0  0  0  0  0  0  0  0  0
   13.8410  -67.8804    1.3974 C   0  0  0  0  0  0  0  0  0  0  0  0
   12.9298  -68.3006    0.4806 N   0  0  0  0  0  0  0  0  0  0  0  0
   13.0578  -68.1797   -0.9786 C   0  0  0  0  0  0  0  0  0  0  0  0
   11.8783  -68.8556    1.1430 C   0  0  0  0  0  0  0  0  0  0  0  0
   12.0996  -68.7972    2.4355 N   0  0  0  0  0  0  0  0  0  0  0  0
   10.1524  -67.0551    8.9587 H   0  0  0  0  0  0  0  0  0  0  0  0
   11.0738  -67.8180   10.0704 H   0  0  0  0  0  0  0  0  0  0  0  0
   11.6216  -66.4589    9.3496 H   0  0  0  0  0  0  0  0  0  0  0  0
   11.5155  -68.1625    4.9376 H   0  0  0  0  0  0  0  0  0  0  0  0
   11.4800  -69.4152    5.9846 H   0  0  0  0  0  0  0  0  0  0  0  0
   13.3109  -70.8764    5.9586 H   0  0  0  0  0  0  0  0  0  0  0  0
   15.7214  -69.8079    4.8117 H   0  0  0  0  0  0  0  0  0  0  0  0
   15.4953  -70.2155    6.3768 H   0  0  0  0  0  0  0  0  0  0  0  0
   17.5396  -71.5305    6.1655 H   0  0  0  0  0  0  0  0  0  0  0  0
   18.3840  -75.8546    6.0595 H   0  0  0  0  0  0  0  0  0  0  0  0
   20.5371  -76.4587    6.9136 H   0  0  0  0  0  0  0  0  0  0  0  0
   22.2165  -74.7921    7.2301 H   0  0  0  0  0  0  0  0  0  0  0  0
   21.7520  -72.5079    6.6958 H   0  0  0  0  0  0  0  0  0  0  0  0
   19.6016  -71.8938    5.8410 H   0  0  0  0  0  0  0  0  0  0  0  0
   17.1551  -75.2748    4.4143 H   0  0  0  0  0  0  0  0  0  0  0  0
   15.0115  -74.6379    3.6016 H   0  0  0  0  0  0  0  0  0  0  0  0
   12.9816  -73.9244    2.8690 H   0  0  0  0  0  0  0  0  0  0  0  0
   11.8330  -72.8576    3.3266 H   0  0  0  0  0  0  0  0  0  0  0  0
   11.7494  -76.0500    3.9255 H   0  0  0  0  0  0  0  0  0  0  0  0
   11.9664  -74.9461    7.8410 H   0  0  0  0  0  0  0  0  0  0  0  0
   13.0487  -71.9263    5.8557 H   0  0  0  0  0  0  0  0  0  0  0  0
   12.0805  -72.1271    7.1553 H   0  0  0  0  0  0  0  0  0  0  0  0
   13.6299  -72.6404    7.2043 H   0  0  0  0  0  0  0  0  0  0  0  0
   12.4105  -70.8077    3.7130 H   0  0  0  0  0  0  0  0  0  0  0  0
   13.9163  -70.5010    3.1606 H   0  0  0  0  0  0  0  0  0  0  0  0
   14.7174  -67.4335    1.2182 H   0  0  0  0  0  0  0  0  0  0  0  0
   12.2486  -68.5700   -1.4177 H   0  0  0  0  0  0  0  0  0  0  0  0
   13.1391  -67.2145   -1.2273 H   0  0  0  0  0  0  0  0  0  0  0  0
   13.8728  -68.6723   -1.2837 H   0  0  0  0  0  0  0  0  0  0  0  0
   11.0648  -69.2465    0.7125 H   0  0  0  0  0  0  0  0  0  0  0  0
  1  2  1  0  0  0  0
  2  3  1  0  0  0  0
  3  4  2  0  0  0  0
  3  5  1  0  0  0  0
  5  6  1  0  0  0  0
  6  7  1  0  0  0  0
  7  8  1  0  0  0  0
  8  9  1  0  0  0  0
  9 10  2  0  0  0  0
 10 11  1  0  0  0  0
 11 12  1  0  0  0  0
 12 13  2  0  0  0  0
 13 14  1  0  0  0  0
 14 15  2  0  0  0  0
 15 16  1  0  0  0  0
 16 17  2  0  0  0  0
 11 18  2  0  0  0  0
 18 19  1  0  0  0  0
 19 20  2  0  0  0  0
 20 21  1  0  0  0  0
 21 22  1  0  0  0  0
 22 23  1  0  0  0  0
 23 24  2  0  0  0  0
 24 25  1  0  0  0  0
 25 26  2  0  0  0  0
 26 27  1  0  0  0  0
 27 28  1  0  0  0  0
 21 29  1  0  0  0  0
  6 30  1  0  0  0  0
 30 31  2  0  0  0  0
 30 32  2  0  0  0  0
 30 33  1  0  0  0  0
 33 34  2  0  0  0  0
 34 35  1  0  0  0  0
 35 36  1  0  0  0  0
 35 37  1  0  0  0  0
 37 38  2  0  0  0  0
 29  7  1  0  0  0  0
 38 33  1  0  0  0  0
 20  9  1  0  0  0  0
 27 23  1  0  0  0  0
 17 12  1  0  0  0  0
  1 39  1  0  0  0  0
  1 40  1  0  0  0  0
  1 41  1  0  0  0  0
  5 42  1  0  0  0  0
  5 43  1  0  0  0  0
  7 44  1  0  0  0  0
  8 45  1  0  0  0  0
  8 46  1  0  0  0  0
 10 47  1  0  0  0  0
 13 48  1  0  0  0  0
 14 49  1  0  0  0  0
 15 50  1  0  0  0  0
 16 51  1  0  0  0  0
 17 52  1  0  0  0  0
 18 53  1  0  0  0  0
 19 54  1  0  0  0  0
 22 55  1  0  0  0  0
 22 56  1  0  0  0  0
 24 57  1  0  0  0  0
 26 58  1  0  0  0  0
 28 59  1  0  0  0  0
 28 60  1  0  0  0  0
 28 61  1  0  0  0  0
 29 62  1  0  0  0  0
 29 63  1  0  0  0  0
 34 64  1  0  0  0  0
 36 65  1  0  0  0  0
 36 66  1  0  0  0  0
 36 67  1  0  0  0  0
 37 68  1  0  0  0  0
M  END
>  <docking-score>
-18.48

$$$$
2IEJ_S48_3
foFlexX   03192112153D 1   1.00000     0.00000     0
FlexX 4.5.0 fol007
 68 72  0  0  0  0            999 V2000
   15.6697  -70.0083    5.3145 C   0  0  0  0  0  0  0  0  0  0  0  0
   15.8759  -69.9396    3.9093 O   0  0  0  0  0  0  0  0  0  0  0  0
   14.8202  -69.9151    2.9950 C   0  0  0  0  0  0  0  0  0  0  0  0
   13.6766  -70.3239    3.3365 O   0  0  0  0  0  0  0  0  0  0  0  0
   15.0495  -69.4788    1.5741 C   0  0  0  0  0  0  0  0  0  0  0  0
   16.0881  -70.2450    0.8490 N   0  0  0  0  0  0  0  0  0  0  0  0
   17.2456  -70.8041    1.5657 C   0  0  2  0  0  0  0  0  0  0  0  0
   18.3944  -71.0068    0.5870 C   0  0  0  0  0  0  0  0  0  0  0  0
   19.5493  -71.7491    1.2407 C   0  0  0  0  0  0  0  0  0  0  0  0
   20.7761  -71.6641    0.6131 C   0  0  0  0  0  0  0  0  0  0  0  0
   21.8606  -72.3441    1.1571 C   0  0  0  0  0  0  0  0  0  0  0  0
   23.1573  -72.2585    0.5163 C   0  0  0  0  0  0  0  0  0  0  0  0
   23.4984  -71.1077   -0.1860 C   0  0  0  0  0  0  0  0  0  0  0  0
   24.7445  -71.0321   -0.7992 C   0  0  0  0  0  0  0  0  0  0  0  0
   25.6383  -72.0934   -0.7111 C   0  0  0  0  0  0  0  0  0  0  0  0
   25.2883  -73.2409   -0.0065 C   0  0  0  0  0  0  0  0  0  0  0  0
   24.0444  -73.3259    0.6100 C   0  0  0  0  0  0  0  0  0  0  0  0
   21.7029  -73.1032    2.3108 C   0  0  0  0  0  0  0  0  0  0  0  0
   20.4457  -73.1541    2.9082 C   0  0  0  0  0  0  0  0  0  0  0  0
   19.3347  -72.4805    2.4052 C   0  0  0  0  0  0  0  0  0  0  0  0
   18.0841  -72.4982    3.0350 N   0  0  0  0  0  0  0  0  0  0  0  0
   17.9063  -72.8095    4.4615 C   0  0  0  0  0  0  0  0  0  0  0  0
   18.4139  -74.1893    4.7814 C   0  0  0  0  0  0  0  0  0  0  0  0
   19.6817  -74.5020    5.1755 C   0  0  0  0  0  0  0  0  0  0  0  0
   19.7177  -75.8521    5.3627 N   0  0  0  0  0  0  0  0  0  0  0  0
   18.5276  -76.3457    5.0955 C   0  0  0  0  0  0  0  0  0  0  0  0
   17.6880  -75.3376    4.7363 N   0  0  0  0  0  0  0  0  0  0  0  0
   16.2715  -75.4637    4.3620 C   0  0  0  0  0  0  0  0  0  0  0  0
   16.9161  -72.1324    2.2350 C   0  0  0  0  0  0  0  0  0  0  0  0
   15.4774  -71.2881   -0.4174 S   0  0  0  0  0  0  0  0  0  0  0  0
   16.6024  -71.8165   -1.2634 O   0  0  0  0  0  0  0  0  0  0  0  0
   14.5084  -70.5356   -1.2859 O   0  0  0  0  0  0  0  0  0  0  0  0
   14.6455  -72.6415    0.3213 C   0  0  0  0  0  0  0  0  0  0  0  0
   14.1634  -72.6670    1.5941 C   0  0  0  0  0  0  0  0  0  0  0  0
   13.6010  -73.8948    1.7466 N   0  0  0  0  0  0  0  0  0  0  0  0
   12.9424  -74.3955    2.9615 C   0  0  0  0  0  0  0  0  0  0  0  0
   13.7485  -74.5827    0.5815 C   0  0  0  0  0  0  0  0  0  0  0  0
   14.3804  -73.8312   -0.2896 N   0  0  0  0  0  0  0  0  0  0  0  0
   15.1689  -70.8447    5.5375 H   0  0  0  0  0  0  0  0  0  0  0  0
   16.5541  -70.0150    5.7812 H   0  0  0  0  0  0  0  0  0  0  0  0
   15.1412  -69.2137    5.6131 H   0  0  0  0  0  0  0  0  0  0  0  0
   15.3228  -68.5170    1.5843 H   0  0  0  0  0  0  0  0  0  0  0  0
   14.1876  -69.5752    1.0762 H   0  0  0  0  0  0  0  0  0  0  0  0
   17.5333  -70.1532    2.2682 H   0  0  0  0  0  0  0  0  0  0  0  0
   18.0669  -71.5370   -0.1950 H   0  0  0  0  0  0  0  0  0  0  0  0
   18.7167  -70.1139    0.2729 H   0  0  0  0  0  0  0  0  0  0  0  0
   20.8834  -71.1216   -0.2201 H   0  0  0  0  0  0  0  0  0  0  0  0
   22.8558  -70.3441   -0.2495 H   0  0  0  0  0  0  0  0  0  0  0  0
   24.9992  -70.2090   -1.3068 H   0  0  0  0  0  0  0  0  0  0  0  0
   26.5327  -72.0319   -1.1541 H   0  0  0  0  0  0  0  0  0  0  0  0
   25.9310  -74.0045    0.0566 H   0  0  0  0  0  0  0  0  0  0  0  0
   23.7895  -74.1491    1.1174 H   0  0  0  0  0  0  0  0  0  0  0  0
   22.4755  -73.6020    2.7035 H   0  0  0  0  0  0  0  0  0  0  0  0
   20.3352  -73.7006    3.7384 H   0  0  0  0  0  0  0  0  0  0  0  0
   16.9337  -72.7585    4.6883 H   0  0  0  0  0  0  0  0  0  0  0  0
   18.4113  -72.1409    5.0072 H   0  0  0  0  0  0  0  0  0  0  0  0
   20.4402  -73.8629    5.3029 H   0  0  0  0  0  0  0  0  0  0  0  0
   18.2788  -77.3128    5.1483 H   0  0  0  0  0  0  0  0  0  0  0  0
   15.9043  -74.5609    4.1382 H   0  0  0  0  0  0  0  0  0  0  0  0
   16.1892  -76.0636    3.5662 H   0  0  0  0  0  0  0  0  0  0  0  0
   15.7579  -75.8522    5.1270 H   0  0  0  0  0  0  0  0  0  0  0  0
   16.1129  -72.0328    2.8224 H   0  0  0  0  0  0  0  0  0  0  0  0
   16.7385  -72.8325    1.5434 H   0  0  0  0  0  0  0  0  0  0  0  0
   14.2128  -71.9356    2.2743 H   0  0  0  0  0  0  0  0  0  0  0  0
   12.6151  -75.3271    2.8034 H   0  0  0  0  0  0  0  0  0  0  0  0
   13.5956  -74.3956    3.7187 H   0  0  0  0  0  0  0  0  0  0  0  0
   12.1686  -73.8043    3.1889 H   0  0  0  0  0  0  0  0  0  0  0  0
   13.4261  -75.5146    0.4152 H   0  0  0  0  0  0  0  0  0  0  0  0
  1  2  1  0  0  0  0
  2  3  1  0  0  0  0
  3  4  2  0  0  0  0
  3  5  1  0  0  0  0
  5  6  1  0  0  0  0
  6  7  1  0  0  0  0
  7  8  1  0  0  0  0
  8  9  1  0  0  0  0
  9 10  2  0  0  0  0
 10 11  1  0  0  0  0
 11 12  1  0  0  0  0
 12 13  2  0  0  0  0
 13 14  1  0  0  0  0
 14 15  2  0  0  0  0
 15 16  1  0  0  0  0
 16 17  2  0  0  0  0
 11 18  2  0  0  0  0
 18 19  1  0  0  0  0
 19 20  2  0  0  0  0
 20 21  1  0  0  0  0
 21 22  1  0  0  0  0
 22 23  1  0  0  0  0
 23 24  2  0  0  0  0
 24 25  1  0  0  0  0
 25 26  2  0  0  0  0
 26 27  1  0  0  0  0
 27 28  1  0  0  0  0
 21 29  1  0  0  0  0
  6 30  1  0  0  0  0
 30 31  2  0  0  0  0
 30 32  2  0  0  0  0
 30 33  1  0  0  0  0
 33 34  2  0  0  0  0
 34 35  1  0  0  0  0
 35 36  1  0  0  0  0
 35 37  1  0  0  0  0
 37 38  2  0  0  0  0
 29  7  1  0  0  0  0
 38 33  1  0  0  0  0
 20  9  1  0  0  0  0
 27 23  1  0  0  0  0
 17 12  1  0  0  0  0
  1 39  1  0  0  0  0
  1 40  1  0  0  0  0
  1 41  1  0  0  0  0
  5 42  1  0  0  0  0
  5 43  1  0  0  0  0
  7 44  1  0  0  0  0
  8 45  1  0  0  0  0
  8 46  1  0  0  0  0
 10 47  1  0  0  0  0
 13 48  1  0  0  0  0
 14 49  1  0  0  0  0
 15 50  1  0  0  0  0
 16 51  1  0  0  0  0
 17 52  1  0  0  0  0
 18 53  1  0  0  0  0
 19 54  1  0  0  0  0
 22 55  1  0  0  0  0
 22 56  1  0  0  0  0
 24 57  1  0  0  0  0
 26 58  1  0  0  0  0
 28 59  1  0  0  0  0
 28 60  1  0  0  0  0
 28 61  1  0  0  0  0
 29 62  1  0  0  0  0
 29 63  1  0  0  0  0
 34 64  1  0  0  0  0
 36 65  1  0  0  0  0
 36 66  1  0  0  0  0
 36 67  1  0  0  0  0
 37 68  1  0  0  0  0
M  END
>  <docking-score>
-18.28

$$$$
