1LD7_U66
foHydescor03072119503D 1   1.00000     0.00000     0
Hydescorer 1.1.0 fol007
 62 67  0  0  0  0            999 V2000
   15.3487  134.7482   -3.6576 C   0  0  0  0  0  0  0  0  0  0  0  0
   15.7504  136.1084   -3.9255 C   0  0  0  0  0  0  0  0  0  0  0  0
   14.0105  134.2941   -3.9943 C   0  0  0  0  0  0  0  0  0  0  0  0
   16.2028  133.8026   -3.0679 C   0  0  0  0  0  0  0  0  0  0  0  0
   17.0795  136.5832   -3.6214 N   0  0  0  0  0  0  0  0  0  0  0  0
   14.8014  136.9917   -4.5220 C   0  0  0  0  0  0  0  0  0  0  0  0
   13.6109  132.9409   -3.7344 C   0  0  0  0  0  0  0  0  0  0  0  0
   13.0994  135.2033   -4.5863 C   0  0  0  0  0  0  0  0  0  0  0  0
   15.8331  132.4486   -2.8076 C   0  0  0  0  0  0  0  0  0  0  0  0
   17.4961  137.2122   -2.4314 C   0  0  0  0  0  0  0  0  0  0  0  0
   18.1906  136.4418   -4.5472 C   0  0  0  0  0  0  0  0  0  0  0  0
   13.4896  136.5397   -4.8452 C   0  0  0  0  0  0  0  0  0  0  0  0
   14.5245  132.0147   -3.1466 C   0  0  0  0  0  0  0  0  0  0  0  0
   16.7381  131.4961   -2.2620 O   0  0  0  0  0  0  0  0  0  0  0  0
   19.0325  137.3839   -2.4979 C   0  0  2  0  0  0  0  0  0  0  0  0
   16.8125  137.4722   -1.4597 O   0  0  0  0  0  0  0  0  0  0  0  0
   19.4006  136.4052   -3.6343 C   0  0  0  0  0  0  0  0  0  0  0  0
   18.1339  131.7938   -2.3303 C   0  0  1  0  0  0  0  0  0  0  0  0
   19.7057  137.0562   -1.2055 N   0  3  0  0  0  0  0  0  0  0  0  0
   18.8997  131.9764   -3.5567 C   0  0  2  0  0  0  0  0  0  0  0  0
   18.7949  131.9181   -1.0747 C   0  0  0  0  0  0  0  0  0  0  0  0
   19.3987  135.7446   -0.5739 C   0  0  0  0  0  0  0  0  0  0  0  0
   20.2802  132.2888   -3.4605 C   0  0  0  0  0  0  0  0  0  0  0  0
   18.2807  131.8484   -4.8562 C   0  0  0  0  0  0  0  0  0  0  0  0
   20.1937  132.2242   -1.0009 C   0  0  0  0  0  0  0  0  0  0  0  0
   20.1818  135.5220    0.7075 C   0  0  0  0  0  0  0  0  0  0  0  0
   20.9173  132.4137   -2.2024 C   0  0  0  0  0  0  0  0  0  0  0  0
   17.7201  131.7408   -5.8656 N   0  0  0  0  0  0  0  0  0  0  0  0
   20.9441  132.3564    0.3041 C   0  0  0  0  0  0  0  0  0  0  0  0
   19.8460  134.3250    1.5420 C   0  0  0  0  0  0  0  0  0  0  0  0
   20.1717  132.9961    1.3657 N   0  0  0  0  0  0  0  0  0  0  0  0
   19.1109  134.3243    2.7029 C   0  0  0  0  0  0  0  0  0  0  0  0
   19.6250  132.2960    2.4150 C   0  0  0  0  0  0  0  0  0  0  0  0
   18.9682  133.0780    3.2519 N   0  0  0  0  0  0  0  0  0  0  0  0
   17.1250  134.0951   -2.8151 H   0  0  0  0  0  0  0  0  0  0  0  0
   15.0600  137.9381   -4.7153 H   0  0  0  0  0  0  0  0  0  0  0  0
   12.6847  132.6441   -3.9668 H   0  0  0  0  0  0  0  0  0  0  0  0
   12.1762  134.8998   -4.8225 H   0  0  0  0  0  0  0  0  0  0  0  0
   18.2371  137.2203   -5.1730 H   0  0  0  0  0  0  0  0  0  0  0  0
   18.1130  135.5951   -5.0736 H   0  0  0  0  0  0  0  0  0  0  0  0
   12.8367  137.1736   -5.2597 H   0  0  0  0  0  0  0  0  0  0  0  0
   14.2455  131.0698   -2.9754 H   0  0  0  0  0  0  0  0  0  0  0  0
   19.2576  138.3195   -2.7699 H   0  0  0  0  0  0  0  0  0  0  0  0
   19.5496  135.4833   -3.2766 H   0  0  0  0  0  0  0  0  0  0  0  0
   20.2208  136.7119   -4.1172 H   0  0  0  0  0  0  0  0  0  0  0  0
   18.3427  130.8160   -2.3444 H   0  0  0  0  0  0  0  0  0  0  0  0
   19.4547  137.7684   -0.5499 H   0  0  0  0  0  0  0  0  0  0  0  0
   19.1204  131.0011   -3.5649 H   0  0  0  0  0  0  0  0  0  0  0  0
   18.6697  131.0466   -0.6006 H   0  0  0  0  0  0  0  0  0  0  0  0
   18.3193  132.6412   -0.5739 H   0  0  0  0  0  0  0  0  0  0  0  0
   19.6262  135.0160   -1.2199 H   0  0  0  0  0  0  0  0  0  0  0  0
   18.4217  135.7103   -0.3633 H   0  0  0  0  0  0  0  0  0  0  0  0
   20.4066  133.1626   -3.9303 H   0  0  0  0  0  0  0  0  0  0  0  0
   20.7686  131.5704   -3.9557 H   0  0  0  0  0  0  0  0  0  0  0  0
   20.0483  136.3303    1.2809 H   0  0  0  0  0  0  0  0  0  0  0  0
   21.1468  135.4471    0.4562 H   0  0  0  0  0  0  0  0  0  0  0  0
   21.8908  132.6387   -2.1622 H   0  0  0  0  0  0  0  0  0  0  0  0
   21.7669  132.9009    0.1409 H   0  0  0  0  0  0  0  0  0  0  0  0
   21.2053  131.4415    0.6117 H   0  0  0  0  0  0  0  0  0  0  0  0
   18.7193  135.1512    3.1063 H   0  0  0  0  0  0  0  0  0  0  0  0
   19.7147  131.3069    2.5312 H   0  0  0  0  0  0  0  0  0  0  0  0
   20.6920  137.0851   -1.3677 H   0  0  0  0  0  0  0  0  0  0  0  0
  2  1  1  0  0  0  0
  3  1  1  0  0  0  0
  4  1  2  0  0  0  0
  5  2  1  0  0  0  0
  6  2  2  0  0  0  0
  7  3  2  0  0  0  0
  8  3  1  0  0  0  0
  9  4  1  0  0  0  0
 10  5  1  0  0  0  0
 11  5  1  0  0  0  0
 12  8  2  0  0  0  0
 12  6  1  0  0  0  0
 13  9  2  0  0  0  0
 13  7  1  0  0  0  0
 14  9  1  0  0  0  0
 15 10  1  0  0  0  0
 16 10  2  0  0  0  0
 15 17  1  0  0  0  0
 17 11  1  0  0  0  0
 18 14  1  0  0  0  0
 19 15  1  0  0  0  0
 20 18  1  0  0  0  0
 21 18  1  0  0  0  0
 22 19  1  0  0  0  0
 23 20  1  0  0  0  0
 24 20  1  0  0  0  0
 25 21  1  0  0  0  0
 26 22  1  0  0  0  0
 27 25  2  0  0  0  0
 27 23  1  0  0  0  0
 28 24  3  0  0  0  0
 29 25  1  0  0  0  0
 30 26  1  0  0  0  0
 31 30  1  0  0  0  0
 31 29  1  0  0  0  0
 32 30  2  0  0  0  0
 33 31  1  0  0  0  0
 34 33  2  0  0  0  0
 34 32  1  0  0  0  0
  4 35  1  0  0  0  0
  6 36  1  0  0  0  0
  7 37  1  0  0  0  0
  8 38  1  0  0  0  0
 11 39  1  0  0  0  0
 11 40  1  0  0  0  0
 12 41  1  0  0  0  0
 13 42  1  0  0  0  0
 15 43  1  0  0  0  0
 17 44  1  0  0  0  0
 17 45  1  0  0  0  0
 18 46  1  0  0  0  0
 19 47  1  0  0  0  0
 20 48  1  0  0  0  0
 21 49  1  0  0  0  0
 21 50  1  0  0  0  0
 22 51  1  0  0  0  0
 22 52  1  0  0  0  0
 23 53  1  0  0  0  0
 23 54  1  0  0  0  0
 26 55  1  0  0  0  0
 26 56  1  0  0  0  0
 27 57  1  0  0  0  0
 29 58  1  0  0  0  0
 29 59  1  0  0  0  0
 32 60  1  0  0  0  0
 33 61  1  0  0  0  0
 19 62  1  0  0  0  0
M  CHG  1  19   1
M  END
> <BIOSOLVEIT.HYDE_ESTIMATED_AFFINITY_LOWER_BOUNDARY [nM]>
3.145247

> <BIOSOLVEIT.HYDE_ESTIMATED_AFFINITY_UPPER_BOUNDARY [nM]>
312.498917

> <BIOSOLVEIT.HYDE_LIGAND_EFFICIENCY range: ++, +, 0, -, -->
0

> <BIOSOLVEIT.HYDE_LIGAND_LIPOPHILIC_EFFICIENCY range: ++, +, 0, -, -->
0

> <BIOSOLVEIT.INTER_CLASH range: red, yellow, green>
green

> <BIOSOLVEIT.INTRA_CLASH range: red, yellow, green>
green

> <BIOSOLVEIT.LOGP>
2.56868

> <BIOSOLVEIT.MOLECULAR WEIGHT>
454.551

> <BIOSOLVEIT.MOLECULE_CHECKSUM>
LTQyLjgzMTU7MS4yNTk3NQ==

> <BIOSOLVEIT.TORSION_QUALITY range: red, yellow, green, not rotatable>
not rotatable

> <BIOSOLVEIT.TPSA>
87.76

$$$$
