1MZC_BNE
foHydescor03072119503D 1   1.00000     0.00000     0
Hydescorer 1.1.0 fol007
 69 72  0  0  0  0            999 V2000
   14.6444  135.5634   -4.4997 C   0  0  1  0  0  0  0  0  0  0  0  0
   14.4420  134.0767   -3.9221 C   0  0  0  0  0  0  0  0  0  0  0  0
   16.1864  135.9491   -4.7968 C   0  0  0  0  0  0  0  0  0  0  0  0
   13.7081  135.6924   -5.7964 C   0  0  0  0  0  0  0  0  0  0  0  0
   14.1317  136.6466   -3.4573 C   0  0  0  0  0  0  0  0  0  0  0  0
   15.5590  133.3445   -3.4486 C   0  0  0  0  0  0  0  0  0  0  0  0
   13.1654  133.4120   -3.8259 C   0  0  0  0  0  0  0  0  0  0  0  0
   16.9247  135.3032   -5.8355 N   0  0  0  0  0  0  0  0  0  0  0  0
   16.7449  136.8267   -4.1050 O   0  0  0  0  0  0  0  0  0  0  0  0
   13.9209  134.7175   -6.9782 C   0  0  0  0  0  0  0  0  0  0  0  0
   14.5872  136.4788   -1.9912 C   0  0  0  0  0  0  0  0  0  0  0  0
   15.4716  132.0237   -2.9020 C   0  0  0  0  0  0  0  0  0  0  0  0
   13.0567  132.0901   -3.2857 C   0  0  0  0  0  0  0  0  0  0  0  0
   16.4329  134.2894   -6.7771 C   0  0  0  0  0  0  0  0  0  0  0  0
   18.3239  135.6820   -6.0505 C   0  0  0  0  0  0  0  0  0  0  0  0
   15.2941  134.8103   -7.6462 C   0  0  0  0  0  0  0  0  0  0  0  0
   16.6474  131.3569   -2.4475 O   0  0  0  0  0  0  0  0  0  0  0  0
   14.2078  131.3950   -2.8243 C   0  0  0  0  0  0  0  0  0  0  0  0
   17.8470  132.1037   -2.4680 C   0  0  0  0  0  0  0  0  0  0  0  0
   18.6841  132.2243   -3.6296 C   0  0  0  0  0  0  0  0  0  0  0  0
   18.2134  132.7727   -1.2663 C   0  0  0  0  0  0  0  0  0  0  0  0
   19.8668  133.0015   -3.5584 C   0  0  0  0  0  0  0  0  0  0  0  0
   18.3146  131.6558   -4.8917 C   0  0  0  0  0  0  0  0  0  0  0  0
   19.3991  133.5701   -1.1802 C   0  0  0  0  0  0  0  0  0  0  0  0
   20.2200  133.6663   -2.3553 C   0  0  0  0  0  0  0  0  0  0  0  0
   17.9575  131.2253   -5.9010 N   0  0  0  0  0  0  0  0  0  0  0  0
   19.8027  134.3047    0.1267 C   0  0  2  0  0  0  0  0  0  0  0  0
   19.5976  133.4632    1.3865 C   0  0  0  0  0  0  0  0  0  0  0  0
   19.0004  135.6379    0.2854 C   0  0  0  0  0  0  0  0  0  0  0  0
   21.2326  134.6239    0.0739 N   0  3  0  0  0  0  0  0  0  0  0  0
   20.0793  132.1820    1.5897 N   0  0  0  0  0  0  0  0  0  0  0  0
   18.9138  133.7415    2.5716 C   0  0  0  0  0  0  0  0  0  0  0  0
   19.6580  131.8120    2.8229 C   0  0  0  0  0  0  0  0  0  0  0  0
   20.8735  131.2870    0.7612 C   0  0  0  0  0  0  0  0  0  0  0  0
   18.9509  132.7128    3.4707 N   0  0  0  0  0  0  0  0  0  0  0  0
   13.8307  136.6179   -6.1549 H   0  0  0  0  0  0  0  0  0  0  0  0
   12.7639  135.5767   -5.4882 H   0  0  0  0  0  0  0  0  0  0  0  0
   13.1320  136.6252   -3.4670 H   0  0  0  0  0  0  0  0  0  0  0  0
   14.4490  137.5413   -3.7713 H   0  0  0  0  0  0  0  0  0  0  0  0
   16.4603  133.7749   -3.4989 H   0  0  0  0  0  0  0  0  0  0  0  0
   12.3417  133.8826   -4.1420 H   0  0  0  0  0  0  0  0  0  0  0  0
   13.2248  134.9101   -7.6698 H   0  0  0  0  0  0  0  0  0  0  0  0
   13.8031  133.7848   -6.6373 H   0  0  0  0  0  0  0  0  0  0  0  0
   14.2025  137.2162   -1.4361 H   0  0  0  0  0  0  0  0  0  0  0  0
   14.2686  135.5976   -1.6419 H   0  0  0  0  0  0  0  0  0  0  0  0
   15.5857  136.5139   -1.9462 H   0  0  0  0  0  0  0  0  0  0  0  0
   12.1601  131.6506   -3.2325 H   0  0  0  0  0  0  0  0  0  0  0  0
   16.1056  133.5000   -6.2577 H   0  0  0  0  0  0  0  0  0  0  0  0
   17.1874  134.0085   -7.3702 H   0  0  0  0  0  0  0  0  0  0  0  0
   18.7018  135.1468   -6.8060 H   0  0  0  0  0  0  0  0  0  0  0  0
   18.3752  136.6554   -6.2733 H   0  0  0  0  0  0  0  0  0  0  0  0
   18.8494  135.5022   -5.2189 H   0  0  0  0  0  0  0  0  0  0  0  0
   15.4757  135.7694   -7.8635 H   0  0  0  0  0  0  0  0  0  0  0  0
   15.2714  134.2757   -8.4910 H   0  0  0  0  0  0  0  0  0  0  0  0
   14.1243  130.4719   -2.4489 H   0  0  0  0  0  0  0  0  0  0  0  0
   17.6272  132.6833   -0.4611 H   0  0  0  0  0  0  0  0  0  0  0  0
   20.4567  133.0823   -4.3618 H   0  0  0  0  0  0  0  0  0  0  0  0
   21.0571  134.2126   -2.3250 H   0  0  0  0  0  0  0  0  0  0  0  0
   19.2755  136.0937    1.1319 H   0  0  0  0  0  0  0  0  0  0  0  0
   19.1911  136.2363   -0.4927 H   0  0  0  0  0  0  0  0  0  0  0  0
   18.0215  135.4359    0.3185 H   0  0  0  0  0  0  0  0  0  0  0  0
   21.4068  135.2489   -0.6870 H   0  0  0  0  0  0  0  0  0  0  0  0
   21.5092  135.0575    0.9315 H   0  0  0  0  0  0  0  0  0  0  0  0
   18.4440  134.6070    2.7452 H   0  0  0  0  0  0  0  0  0  0  0  0
   19.8698  130.9162    3.2138 H   0  0  0  0  0  0  0  0  0  0  0  0
   21.0291  130.4293    1.2513 H   0  0  0  0  0  0  0  0  0  0  0  0
   20.3848  131.1001   -0.0909 H   0  0  0  0  0  0  0  0  0  0  0  0
   21.7524  131.7166    0.5541 H   0  0  0  0  0  0  0  0  0  0  0  0
   21.7571  133.7829   -0.0587 H   0  0  0  0  0  0  0  0  0  0  0  0
  2  1  1  0  0  0  0
  3  1  1  0  0  0  0
  4  1  1  0  0  0  0
  1  5  1  0  0  0  0
  6  2  2  0  0  0  0
  7  2  1  0  0  0  0
  8  3  1  0  0  0  0
  9  3  2  0  0  0  0
 10  4  1  0  0  0  0
 11  5  1  0  0  0  0
 12  6  1  0  0  0  0
 13  7  2  0  0  0  0
 14  8  1  0  0  0  0
 15  8  1  0  0  0  0
 16 10  1  0  0  0  0
 16 14  1  0  0  0  0
 17 12  1  0  0  0  0
 18 13  1  0  0  0  0
 18 12  2  0  0  0  0
 19 17  1  0  0  0  0
 20 19  2  0  0  0  0
 21 19  1  0  0  0  0
 22 20  1  0  0  0  0
 23 20  1  0  0  0  0
 24 21  2  0  0  0  0
 25 24  1  0  0  0  0
 25 22  2  0  0  0  0
 26 23  3  0  0  0  0
 27 24  1  0  0  0  0
 28 27  1  0  0  0  0
 27 29  1  0  0  0  0
 30 27  1  0  0  0  0
 31 28  1  0  0  0  0
 32 28  2  0  0  0  0
 33 31  1  0  0  0  0
 34 31  1  0  0  0  0
 35 33  2  0  0  0  0
 35 32  1  0  0  0  0
  4 36  1  0  0  0  0
  4 37  1  0  0  0  0
  5 38  1  0  0  0  0
  5 39  1  0  0  0  0
  6 40  1  0  0  0  0
  7 41  1  0  0  0  0
 10 42  1  0  0  0  0
 10 43  1  0  0  0  0
 11 44  1  0  0  0  0
 11 45  1  0  0  0  0
 11 46  1  0  0  0  0
 13 47  1  0  0  0  0
 14 48  1  0  0  0  0
 14 49  1  0  0  0  0
 15 50  1  0  0  0  0
 15 51  1  0  0  0  0
 15 52  1  0  0  0  0
 16 53  1  0  0  0  0
 16 54  1  0  0  0  0
 18 55  1  0  0  0  0
 21 56  1  0  0  0  0
 22 57  1  0  0  0  0
 25 58  1  0  0  0  0
 29 59  1  0  0  0  0
 29 60  1  0  0  0  0
 29 61  1  0  0  0  0
 30 62  1  0  0  0  0
 30 63  1  0  0  0  0
 32 64  1  0  0  0  0
 33 65  1  0  0  0  0
 34 66  1  0  0  0  0
 34 67  1  0  0  0  0
 34 68  1  0  0  0  0
 30 69  1  0  0  0  0
M  CHG  1  30   1
M  END
> <BIOSOLVEIT.HYDE_ESTIMATED_AFFINITY_LOWER_BOUNDARY [nM]>
0.010021

> <BIOSOLVEIT.HYDE_ESTIMATED_AFFINITY_UPPER_BOUNDARY [nM]>
0.995611

> <BIOSOLVEIT.HYDE_LIGAND_EFFICIENCY range: ++, +, 0, -, -->
0

> <BIOSOLVEIT.HYDE_LIGAND_LIPOPHILIC_EFFICIENCY range: ++, +, 0, -, -->
+

> <BIOSOLVEIT.INTER_CLASH range: red, yellow, green>
green

> <BIOSOLVEIT.INTRA_CLASH range: red, yellow, green>
green

> <BIOSOLVEIT.LOGP>
3.87958

> <BIOSOLVEIT.MOLECULAR WEIGHT>
472.61

> <BIOSOLVEIT.MOLECULE_CHECKSUM>
LTU3LjA4MzsxLjYzMDk0

> <BIOSOLVEIT.TORSION_QUALITY range: red, yellow, green, not rotatable>
green

> <BIOSOLVEIT.TPSA>
98.79

$$$$
