1S63_778
foHydescor03072119513D 1   1.00000     0.00000     0
Hydescorer 1.1.0 fol007
 50 53  0  0  0  0            999 V2000
   18.3753  135.3468   -0.1208 N   0  3  2  0  0  0  0  0  0  0  0  0
   17.1492  136.0458    0.2742 C   0  0  0  0  0  0  0  0  0  0  0  0
   19.5167  135.2650    0.7911 C   0  0  0  0  0  0  0  0  0  0  0  0
   18.9192  135.8067   -1.4057 C   0  0  0  0  0  0  0  0  0  0  0  0
   16.1684  135.4747   -0.7634 C   0  0  0  0  0  0  0  0  0  0  0  0
   19.3950  133.9858    1.6159 C   0  0  0  0  0  0  0  0  0  0  0  0
   17.8621  135.6182   -2.5360 C   0  0  0  0  0  0  0  0  0  0  0  0
   16.5179  135.4549   -2.1863 N   0  0  0  0  0  0  0  0  0  0  0  0
   19.9879  132.8138    1.2413 N   0  0  0  0  0  0  0  0  0  0  0  0
   18.7153  133.8299    2.7689 C   0  0  0  0  0  0  0  0  0  0  0  0
   18.2154  135.6097   -3.6999 O   0  0  0  0  0  0  0  0  0  0  0  0
   15.4995  135.2736   -3.0951 C   0  0  0  0  0  0  0  0  0  0  0  0
   20.8230  132.5512    0.0451 C   0  0  0  0  0  0  0  0  0  0  0  0
   19.7075  131.8851    2.1351 C   0  0  0  0  0  0  0  0  0  0  0  0
   18.9136  132.4530    3.1232 N   0  0  0  0  0  0  0  0  0  0  0  0
   14.9963  133.9824   -3.1430 C   0  0  0  0  0  0  0  0  0  0  0  0
   14.9448  136.2875   -3.9511 C   0  0  0  0  0  0  0  0  0  0  0  0
   20.0207  132.3671   -1.2511 C   0  0  0  0  0  0  0  0  0  0  0  0
   13.9568  133.6335   -4.0054 C   0  0  0  0  0  0  0  0  0  0  0  0
   13.8954  135.9400   -4.8325 C   0  0  0  0  0  0  0  0  0  0  0  0
   20.5834  132.7223   -2.4987 C   0  0  0  0  0  0  0  0  0  0  0  0
   18.7200  131.8450   -1.2350 C   0  0  0  0  0  0  0  0  0  0  0  0
   13.4009  134.6107   -4.8568 C   0  0  0  0  0  0  0  0  0  0  0  0
   13.4033  131.9996   -3.9692 Cl  0  0  0  0  0  0  0  0  0  0  0  0
   19.8594  132.5489   -3.7008 C   0  0  0  0  0  0  0  0  0  0  0  0
   18.0019  131.6732   -2.4232 C   0  0  0  0  0  0  0  0  0  0  0  0
   18.5786  132.0270   -3.6656 C   0  0  0  0  0  0  0  0  0  0  0  0
   17.8972  131.8504   -4.7922 C   0  0  0  0  0  0  0  0  0  0  0  0
   17.2977  131.6911   -5.7869 N   0  0  0  0  0  0  0  0  0  0  0  0
   17.2437  137.0376    0.1887 H   0  0  0  0  0  0  0  0  0  0  0  0
   16.8760  135.8163    1.2084 H   0  0  0  0  0  0  0  0  0  0  0  0
   19.5186  136.0587    1.3996 H   0  0  0  0  0  0  0  0  0  0  0  0
   20.3669  135.2464    0.2650 H   0  0  0  0  0  0  0  0  0  0  0  0
   19.7375  135.2762   -1.6269 H   0  0  0  0  0  0  0  0  0  0  0  0
   19.1586  136.7751   -1.3354 H   0  0  0  0  0  0  0  0  0  0  0  0
   15.3250  136.0061   -0.6831 H   0  0  0  0  0  0  0  0  0  0  0  0
   15.9915  134.5267   -0.4988 H   0  0  0  0  0  0  0  0  0  0  0  0
   18.1898  134.5197    3.2669 H   0  0  0  0  0  0  0  0  0  0  0  0
   21.3520  131.7184    0.2080 H   0  0  0  0  0  0  0  0  0  0  0  0
   21.4464  133.3232   -0.0783 H   0  0  0  0  0  0  0  0  0  0  0  0
   20.0144  130.9339    2.1063 H   0  0  0  0  0  0  0  0  0  0  0  0
   15.3883  133.2839   -2.5443 H   0  0  0  0  0  0  0  0  0  0  0  0
   15.2958  137.2234   -3.9233 H   0  0  0  0  0  0  0  0  0  0  0  0
   13.5017  136.6312   -5.4386 H   0  0  0  0  0  0  0  0  0  0  0  0
   21.5078  133.1022   -2.5314 H   0  0  0  0  0  0  0  0  0  0  0  0
   18.3002  131.5921   -0.3634 H   0  0  0  0  0  0  0  0  0  0  0  0
   12.6569  134.3661   -5.4787 H   0  0  0  0  0  0  0  0  0  0  0  0
   20.2725  132.8031   -4.5753 H   0  0  0  0  0  0  0  0  0  0  0  0
   17.0753  131.2981   -2.3941 H   0  0  0  0  0  0  0  0  0  0  0  0
   18.0974  134.3992   -0.2781 H   0  0  0  0  0  0  0  0  0  0  0  0
  2  1  1  0  0  0  0
  3  1  1  0  0  0  0
  4  1  1  0  0  0  0
  5  2  1  0  0  0  0
  6  3  1  0  0  0  0
  7  4  1  0  0  0  0
  8  5  1  0  0  0  0
  8  7  1  0  0  0  0
  9  6  1  0  0  0  0
 10  6  2  0  0  0  0
 11  7  2  0  0  0  0
 12  8  1  0  0  0  0
 13  9  1  0  0  0  0
 14  9  1  0  0  0  0
 15 14  2  0  0  0  0
 15 10  1  0  0  0  0
 16 12  2  0  0  0  0
 17 12  1  0  0  0  0
 18 13  1  0  0  0  0
 19 16  1  0  0  0  0
 20 17  2  0  0  0  0
 21 18  2  0  0  0  0
 22 18  1  0  0  0  0
 23 20  1  0  0  0  0
 23 19  2  0  0  0  0
 24 19  1  0  0  0  0
 25 21  1  0  0  0  0
 26 22  2  0  0  0  0
 27 26  1  0  0  0  0
 27 25  2  0  0  0  0
 28 27  1  0  0  0  0
 29 28  3  0  0  0  0
  2 30  1  0  0  0  0
  2 31  1  0  0  0  0
  3 32  1  0  0  0  0
  3 33  1  0  0  0  0
  4 34  1  0  0  0  0
  4 35  1  0  0  0  0
  5 36  1  0  0  0  0
  5 37  1  0  0  0  0
 10 38  1  0  0  0  0
 13 39  1  0  0  0  0
 13 40  1  0  0  0  0
 14 41  1  0  0  0  0
 16 42  1  0  0  0  0
 17 43  1  0  0  0  0
 20 44  1  0  0  0  0
 21 45  1  0  0  0  0
 22 46  1  0  0  0  0
 23 47  1  0  0  0  0
 25 48  1  0  0  0  0
 26 49  1  0  0  0  0
  1 50  1  0  0  0  0
M  CHG  1   1   1
M  END
> <BIOSOLVEIT.HYDE_ESTIMATED_AFFINITY_LOWER_BOUNDARY [nM]>
2.649197

> <BIOSOLVEIT.HYDE_ESTIMATED_AFFINITY_UPPER_BOUNDARY [nM]>
263.213382

> <BIOSOLVEIT.HYDE_LIGAND_EFFICIENCY range: ++, +, 0, -, -->
0

> <BIOSOLVEIT.HYDE_LIGAND_LIPOPHILIC_EFFICIENCY range: ++, +, 0, -, -->
+

> <BIOSOLVEIT.INTER_CLASH range: red, yellow, green>
green

> <BIOSOLVEIT.INTRA_CLASH range: red, yellow, green>
green

> <BIOSOLVEIT.LOGP>
1.88818

> <BIOSOLVEIT.MOLECULAR WEIGHT>
406.895

> <BIOSOLVEIT.MOLECULE_CHECKSUM>
LTQzLjI1Njk7MS40OTE2Mg==

> <BIOSOLVEIT.TORSION_QUALITY range: red, yellow, green, not rotatable>
green

> <BIOSOLVEIT.TPSA>
66.36

$$$$
