1SA4_JAN
foHydescor03072119513D 1   1.00000     0.00000     0
Hydescorer 1.1.0 fol007
 57 61  0  0  0  0            999 V2000
   21.0662  132.0906    0.5194 C   0  0  0  0  0  0  0  0  0  0  0  0
   20.0754  132.5160    1.5420 N   0  0  0  0  0  0  0  0  0  0  0  0
   19.8223  131.8712    2.6795 C   0  0  0  0  0  0  0  0  0  0  0  0
   18.8484  132.5638    3.3275 N   0  0  0  0  0  0  0  0  0  0  0  0
   18.5035  133.6369    2.5853 C   0  0  0  0  0  0  0  0  0  0  0  0
   19.2769  133.5659    1.5092 C   0  0  0  0  0  0  0  0  0  0  0  0
   19.1833  134.4801    0.3887 C   0  0  2  0  0  0  0  0  0  0  0  0
   18.9757  133.8013   -0.8556 C   0  0  0  0  0  0  0  0  0  0  0  0
   18.1808  132.6281   -0.8990 C   0  0  0  0  0  0  0  0  0  0  0  0
   17.9205  131.9845   -2.1167 C   0  0  0  0  0  0  0  0  0  0  0  0
   18.4456  132.4963   -3.3106 C   0  0  0  0  0  0  0  0  0  0  0  0
   18.0642  131.6888   -4.8501 Cl  0  0  0  0  0  0  0  0  0  0  0  0
   19.2436  133.6596   -3.2910 C   0  0  0  0  0  0  0  0  0  0  0  0
   19.5096  134.3119   -2.0661 C   0  0  0  0  0  0  0  0  0  0  0  0
   20.5195  135.1040    0.3004 N   0  3  0  0  0  0  0  0  0  0  0  0
   18.2995  135.6031    0.6014 C   0  0  0  0  0  0  0  0  0  0  0  0
   17.1181  135.7778   -0.1763 C   0  0  0  0  0  0  0  0  0  0  0  0
   16.1468  136.7567    0.1716 C   0  0  0  0  0  0  0  0  0  0  0  0
   18.5083  136.4551    1.7155 C   0  0  0  0  0  0  0  0  0  0  0  0
   17.5542  137.4225    2.0676 C   0  0  0  0  0  0  0  0  0  0  0  0
   16.3694  137.5743    1.3151 C   0  0  0  0  0  0  0  0  0  0  0  0
   15.3613  138.5029    1.7295 N   0  0  0  0  0  0  0  0  0  0  0  0
   15.5712  139.3807    2.9174 C   0  0  0  0  0  0  0  0  0  0  0  0
   14.1507  138.6034    1.0084 C   0  0  0  0  0  0  0  0  0  0  0  0
   13.2632  139.3657    1.3917 O   0  0  0  0  0  0  0  0  0  0  0  0
   13.9434  137.8102   -0.1243 C   0  0  0  0  0  0  0  0  0  0  0  0
   14.9243  136.8947   -0.5648 C   0  0  0  0  0  0  0  0  0  0  0  0
   14.6941  136.2141   -1.7887 C   0  0  0  0  0  0  0  0  0  0  0  0
   14.6617  134.8016   -1.8544 C   0  0  0  0  0  0  0  0  0  0  0  0
   14.3742  134.1621   -3.0806 C   0  0  0  0  0  0  0  0  0  0  0  0
   14.3063  132.3961   -3.1682 Cl  0  0  0  0  0  0  0  0  0  0  0  0
   14.1216  134.9191   -4.2400 C   0  0  0  0  0  0  0  0  0  0  0  0
   14.1534  136.3205   -4.1803 C   0  0  0  0  0  0  0  0  0  0  0  0
   14.4378  136.9649   -2.9631 C   0  0  0  0  0  0  0  0  0  0  0  0
   21.0648  132.7437   -0.2379 H   0  0  0  0  0  0  0  0  0  0  0  0
   21.9771  132.0591    0.9307 H   0  0  0  0  0  0  0  0  0  0  0  0
   20.8233  131.1829    0.1772 H   0  0  0  0  0  0  0  0  0  0  0  0
   20.2660  131.0335    2.9978 H   0  0  0  0  0  0  0  0  0  0  0  0
   17.8169  134.3318    2.7989 H   0  0  0  0  0  0  0  0  0  0  0  0
   17.8018  132.2559   -0.0518 H   0  0  0  0  0  0  0  0  0  0  0  0
   17.3585  131.1575   -2.1332 H   0  0  0  0  0  0  0  0  0  0  0  0
   19.6206  134.0221   -4.1433 H   0  0  0  0  0  0  0  0  0  0  0  0
   20.0760  135.1360   -2.0528 H   0  0  0  0  0  0  0  0  0  0  0  0
   21.1358  134.5016   -0.2068 H   0  0  0  0  0  0  0  0  0  0  0  0
   20.4470  135.9818   -0.1731 H   0  0  0  0  0  0  0  0  0  0  0  0
   16.9695  135.2023   -0.9804 H   0  0  0  0  0  0  0  0  0  0  0  0
   19.3446  136.3657    2.2564 H   0  0  0  0  0  0  0  0  0  0  0  0
   17.7155  138.0106    2.8602 H   0  0  0  0  0  0  0  0  0  0  0  0
   14.7656  139.9576    3.0521 H   0  0  0  0  0  0  0  0  0  0  0  0
   15.7152  138.8145    3.7290 H   0  0  0  0  0  0  0  0  0  0  0  0
   16.3735  139.9584    2.7673 H   0  0  0  0  0  0  0  0  0  0  0  0
   13.0855  137.8928   -0.6314 H   0  0  0  0  0  0  0  0  0  0  0  0
   14.8417  134.2573   -1.0351 H   0  0  0  0  0  0  0  0  0  0  0  0
   13.9199  134.4590   -5.1047 H   0  0  0  0  0  0  0  0  0  0  0  0
   13.9741  136.8607   -5.0024 H   0  0  0  0  0  0  0  0  0  0  0  0
   14.4593  137.9640   -2.9257 H   0  0  0  0  0  0  0  0  0  0  0  0
   20.8804  135.2510    1.2214 H   0  0  0  0  0  0  0  0  0  0  0  0
  2  1  1  0  0  0  0
  3  2  1  0  0  0  0
  4  3  2  0  0  0  0
  5  4  1  0  0  0  0
  6  5  2  0  0  0  0
  6  2  1  0  0  0  0
  7  6  1  0  0  0  0
  8  7  1  0  0  0  0
  9  8  2  0  0  0  0
 10  9  1  0  0  0  0
 11 10  2  0  0  0  0
 12 11  1  0  0  0  0
 13 11  1  0  0  0  0
 14 13  2  0  0  0  0
 14  8  1  0  0  0  0
  7 15  1  0  0  0  0
 16  7  1  0  0  0  0
 17 16  2  0  0  0  0
 18 17  1  0  0  0  0
 19 16  1  0  0  0  0
 20 19  2  0  0  0  0
 21 18  2  0  0  0  0
 21 20  1  0  0  0  0
 22 21  1  0  0  0  0
 23 22  1  0  0  0  0
 24 22  1  0  0  0  0
 25 24  2  0  0  0  0
 26 24  1  0  0  0  0
 27 26  2  0  0  0  0
 27 18  1  0  0  0  0
 28 27  1  0  0  0  0
 29 28  2  0  0  0  0
 30 29  1  0  0  0  0
 31 30  1  0  0  0  0
 32 30  2  0  0  0  0
 33 32  1  0  0  0  0
 34 33  2  0  0  0  0
 34 28  1  0  0  0  0
  1 35  1  0  0  0  0
  1 36  1  0  0  0  0
  1 37  1  0  0  0  0
  3 38  1  0  0  0  0
  5 39  1  0  0  0  0
  9 40  1  0  0  0  0
 10 41  1  0  0  0  0
 13 42  1  0  0  0  0
 14 43  1  0  0  0  0
 15 44  1  0  0  0  0
 15 45  1  0  0  0  0
 17 46  1  0  0  0  0
 19 47  1  0  0  0  0
 20 48  1  0  0  0  0
 23 49  1  0  0  0  0
 23 50  1  0  0  0  0
 23 51  1  0  0  0  0
 26 52  1  0  0  0  0
 29 53  1  0  0  0  0
 32 54  1  0  0  0  0
 33 55  1  0  0  0  0
 34 56  1  0  0  0  0
 15 57  1  0  0  0  0
M  CHG  1  15   1
M  END
> <BIOSOLVEIT.HYDE_ESTIMATED_AFFINITY_LOWER_BOUNDARY [nM]>
0.649062

> <BIOSOLVEIT.HYDE_ESTIMATED_AFFINITY_UPPER_BOUNDARY [nM]>
64.488159

> <BIOSOLVEIT.HYDE_LIGAND_EFFICIENCY range: ++, +, 0, -, -->
0

> <BIOSOLVEIT.HYDE_LIGAND_LIPOPHILIC_EFFICIENCY range: ++, +, 0, -, -->
0

> <BIOSOLVEIT.INTER_CLASH range: red, yellow, green>
green

> <BIOSOLVEIT.INTRA_CLASH range: red, yellow, green>
yellow

> <BIOSOLVEIT.LOGP>
4.6688

> <BIOSOLVEIT.MOLECULAR WEIGHT>
490.412

> <BIOSOLVEIT.MOLECULE_CHECKSUM>
LTQ2Ljc0MzY7MS4zNzQ4MQ==

> <BIOSOLVEIT.TORSION_QUALITY range: red, yellow, green, not rotatable>
green

> <BIOSOLVEIT.TPSA>
65.77

$$$$
