2IEJ_S48
foHydescor03072119513D 1   1.00000     0.00000     0
Hydescorer 1.1.0 fol007
 68 72  0  0  0  0            999 V2000
   21.3683  136.4391   -5.1195 C   0  0  0  0  0  0  0  0  0  0  0  0
   20.4596  135.3423   -4.6370 N   0  0  0  0  0  0  0  0  0  0  0  0
   19.1443  135.3886   -4.7817 C   0  0  0  0  0  0  0  0  0  0  0  0
   20.8111  134.2117   -4.0100 C   0  0  0  0  0  0  0  0  0  0  0  0
   19.6896  133.5133   -3.7549 N   0  0  0  0  0  0  0  0  0  0  0  0
   18.6998  134.2629   -4.2247 C   0  0  0  0  0  0  0  0  0  0  0  0
   17.0272  133.8757   -4.1878 S   0  0  0  0  0  0  0  0  0  0  0  0
   16.8152  132.5556   -4.8854 O   0  0  0  0  0  0  0  0  0  0  0  0
   16.2561  134.9776   -4.8808 O   0  0  0  0  0  0  0  0  0  0  0  0
   16.3773  133.8204   -2.6874 N   0  0  0  0  0  0  0  0  0  0  0  0
   16.2190  132.4325   -2.2053 C   0  0  0  0  0  0  0  0  0  0  0  0
   14.7537  132.1501   -2.5828 C   0  0  0  0  0  0  0  0  0  0  0  0
   14.0363  133.0730   -2.9834 O   0  0  0  0  0  0  0  0  0  0  0  0
   14.2700  130.8936   -2.4981 O   0  0  0  0  0  0  0  0  0  0  0  0
   12.8965  130.6652   -2.8271 C   0  0  0  0  0  0  0  0  0  0  0  0
   16.7630  134.8842   -1.7532 C   0  0  2  0  0  0  0  0  0  0  0  0
   17.7011  134.4578   -0.6297 C   0  0  0  0  0  0  0  0  0  0  0  0
   15.4238  135.4306   -1.1832 C   0  0  0  0  0  0  0  0  0  0  0  0
   15.6156  136.3798   -0.0045 C   0  0  0  0  0  0  0  0  0  0  0  0
   14.5604  137.2483    0.3198 C   0  0  0  0  0  0  0  0  0  0  0  0
   14.6520  138.1262    1.4251 C   0  0  0  0  0  0  0  0  0  0  0  0
   13.5950  139.0297    1.7335 C   0  0  0  0  0  0  0  0  0  0  0  0
   12.2487  138.7487    1.4730 C   0  0  0  0  0  0  0  0  0  0  0  0
   11.2374  139.6919    1.7564 C   0  0  0  0  0  0  0  0  0  0  0  0
   11.5802  140.9499    2.2776 C   0  0  0  0  0  0  0  0  0  0  0  0
   12.9192  141.2566    2.5117 C   0  0  0  0  0  0  0  0  0  0  0  0
   13.9156  140.3075    2.2376 C   0  0  0  0  0  0  0  0  0  0  0  0
   15.8509  138.1464    2.1471 C   0  0  0  0  0  0  0  0  0  0  0  0
   16.9152  137.2999    1.8059 C   0  0  0  0  0  0  0  0  0  0  0  0
   16.8046  136.4191    0.7165 C   0  0  0  0  0  0  0  0  0  0  0  0
   17.8809  135.5546    0.3353 N   0  0  0  0  0  0  0  0  0  0  0  0
   19.2269  135.7385    0.9200 C   0  0  0  0  0  0  0  0  0  0  0  0
   19.3042  134.9519    2.2402 C   0  0  0  0  0  0  0  0  0  0  0  0
   18.6767  133.7977    2.5317 C   0  0  0  0  0  0  0  0  0  0  0  0
   19.0020  133.4368    3.7712 N   0  0  0  0  0  0  0  0  0  0  0  0
   19.8251  134.3704    4.2745 C   0  0  0  0  0  0  0  0  0  0  0  0
   20.0052  135.2864    3.3238 N   0  0  0  0  0  0  0  0  0  0  0  0
   20.8903  136.5067    3.4644 C   0  0  0  0  0  0  0  0  0  0  0  0
   22.3170  136.2022   -4.9101 H   0  0  0  0  0  0  0  0  0  0  0  0
   21.2625  136.5489   -6.1079 H   0  0  0  0  0  0  0  0  0  0  0  0
   21.1298  137.2954   -4.6616 H   0  0  0  0  0  0  0  0  0  0  0  0
   18.6033  136.1101   -5.2140 H   0  0  0  0  0  0  0  0  0  0  0  0
   21.7426  133.9355   -3.7734 H   0  0  0  0  0  0  0  0  0  0  0  0
   16.3616  132.3692   -1.2176 H   0  0  0  0  0  0  0  0  0  0  0  0
   16.8447  131.8084   -2.6732 H   0  0  0  0  0  0  0  0  0  0  0  0
   12.6847  129.6940   -2.7183 H   0  0  0  0  0  0  0  0  0  0  0  0
   12.3138  131.2037   -2.2184 H   0  0  0  0  0  0  0  0  0  0  0  0
   12.7309  130.9383   -3.7748 H   0  0  0  0  0  0  0  0  0  0  0  0
   17.2057  135.6149   -2.2730 H   0  0  0  0  0  0  0  0  0  0  0  0
   18.5892  134.2119   -1.0179 H   0  0  0  0  0  0  0  0  0  0  0  0
   17.3122  133.6658   -0.1590 H   0  0  0  0  0  0  0  0  0  0  0  0
   14.8677  134.6564   -0.8806 H   0  0  0  0  0  0  0  0  0  0  0  0
   14.9448  135.9207   -1.9114 H   0  0  0  0  0  0  0  0  0  0  0  0
   13.7314  137.2459   -0.2395 H   0  0  0  0  0  0  0  0  0  0  0  0
   11.9989  137.8640    1.0794 H   0  0  0  0  0  0  0  0  0  0  0  0
   10.2785  139.4646    1.5862 H   0  0  0  0  0  0  0  0  0  0  0  0
   10.8675  141.6218    2.4795 H   0  0  0  0  0  0  0  0  0  0  0  0
   13.1701  142.1538    2.8753 H   0  0  0  0  0  0  0  0  0  0  0  0
   14.8735  140.5419    2.4033 H   0  0  0  0  0  0  0  0  0  0  0  0
   15.9500  138.7748    2.9188 H   0  0  0  0  0  0  0  0  0  0  0  0
   17.7593  137.3232    2.3416 H   0  0  0  0  0  0  0  0  0  0  0  0
   19.3868  136.7096    1.0972 H   0  0  0  0  0  0  0  0  0  0  0  0
   19.9193  135.3972    0.2842 H   0  0  0  0  0  0  0  0  0  0  0  0
   18.0672  133.2946    1.9190 H   0  0  0  0  0  0  0  0  0  0  0  0
   20.2272  134.3769    5.1900 H   0  0  0  0  0  0  0  0  0  0  0  0
   20.8606  137.0393    2.6185 H   0  0  0  0  0  0  0  0  0  0  0  0
   20.5643  137.0693    4.2241 H   0  0  0  0  0  0  0  0  0  0  0  0
   21.8307  136.2175    3.6433 H   0  0  0  0  0  0  0  0  0  0  0  0
  2  1  1  0  0  0  0
  3  2  1  0  0  0  0
  4  2  1  0  0  0  0
  5  4  2  0  0  0  0
  6  5  1  0  0  0  0
  6  3  2  0  0  0  0
  7  6  1  0  0  0  0
  8  7  2  0  0  0  0
  9  7  2  0  0  0  0
 10  7  1  0  0  0  0
 11 10  1  0  0  0  0
 12 11  1  0  0  0  0
 13 12  2  0  0  0  0
 14 12  1  0  0  0  0
 15 14  1  0  0  0  0
 16 10  1  0  0  0  0
 17 16  1  0  0  0  0
 18 16  1  0  0  0  0
 19 18  1  0  0  0  0
 20 19  1  0  0  0  0
 21 20  2  0  0  0  0
 22 21  1  0  0  0  0
 23 22  2  0  0  0  0
 24 23  1  0  0  0  0
 25 24  2  0  0  0  0
 26 25  1  0  0  0  0
 27 26  2  0  0  0  0
 27 22  1  0  0  0  0
 28 21  1  0  0  0  0
 29 28  2  0  0  0  0
 30 19  2  0  0  0  0
 30 29  1  0  0  0  0
 31 17  1  0  0  0  0
 31 30  1  0  0  0  0
 32 31  1  0  0  0  0
 33 32  1  0  0  0  0
 34 33  2  0  0  0  0
 35 34  1  0  0  0  0
 36 35  2  0  0  0  0
 37 36  1  0  0  0  0
 37 33  1  0  0  0  0
 38 37  1  0  0  0  0
  1 39  1  0  0  0  0
  1 40  1  0  0  0  0
  1 41  1  0  0  0  0
  3 42  1  0  0  0  0
  4 43  1  0  0  0  0
 11 44  1  0  0  0  0
 11 45  1  0  0  0  0
 15 46  1  0  0  0  0
 15 47  1  0  0  0  0
 15 48  1  0  0  0  0
 16 49  1  0  0  0  0
 17 50  1  0  0  0  0
 17 51  1  0  0  0  0
 18 52  1  0  0  0  0
 18 53  1  0  0  0  0
 20 54  1  0  0  0  0
 23 55  1  0  0  0  0
 24 56  1  0  0  0  0
 25 57  1  0  0  0  0
 26 58  1  0  0  0  0
 27 59  1  0  0  0  0
 28 60  1  0  0  0  0
 29 61  1  0  0  0  0
 32 62  1  0  0  0  0
 32 63  1  0  0  0  0
 34 64  1  0  0  0  0
 36 65  1  0  0  0  0
 38 66  1  0  0  0  0
 38 67  1  0  0  0  0
 38 68  1  0  0  0  0
M  END
> <BIOSOLVEIT.HYDE_ESTIMATED_AFFINITY_LOWER_BOUNDARY [nM]>
377.877722

> <BIOSOLVEIT.HYDE_ESTIMATED_AFFINITY_UPPER_BOUNDARY [nM]>
37544.385852

> <BIOSOLVEIT.HYDE_LIGAND_EFFICIENCY range: ++, +, 0, -, -->
--

> <BIOSOLVEIT.HYDE_LIGAND_LIPOPHILIC_EFFICIENCY range: ++, +, 0, -, -->
-

> <BIOSOLVEIT.INTER_CLASH range: red, yellow, green>
green

> <BIOSOLVEIT.INTRA_CLASH range: red, yellow, green>
green

> <BIOSOLVEIT.LOGP>
3.2664

> <BIOSOLVEIT.MOLECULAR WEIGHT>
534.637

> <BIOSOLVEIT.MOLECULE_CHECKSUM>
LTMwLjk2MDU7MC44MTQ3NTE=

> <BIOSOLVEIT.TORSION_QUALITY range: red, yellow, green, not rotatable>
yellow

> <BIOSOLVEIT.TPSA>
102.56

$$$$
