2IEJ_FII
foHydescor03072119513D 1   1.00000     0.00000     0
Hydescorer 1.1.0 fol007
 52 51  0  0  0  0            999 V2000
   14.2792  129.5978   -6.6105 C   0  0  0  0  0  0  0  0  0  0  0  0
   13.8724  128.3657   -5.8029 C   0  0  0  0  0  0  0  0  0  0  0  0
   12.6106  127.6060   -6.1872 C   0  0  0  0  0  0  0  0  0  0  0  0
   14.6467  127.9456   -4.7200 C   0  0  0  0  0  0  0  0  0  0  0  0
   15.8125  128.5787   -4.2830 C   0  0  0  0  0  0  0  0  0  0  0  0
   16.8505  127.5465   -3.9043 C   0  0  0  0  0  0  0  0  0  0  0  0
   18.0459  128.1129   -3.1045 C   0  0  0  0  0  0  0  0  0  0  0  0
   17.8385  128.7807   -1.7472 C   0  0  0  0  0  0  0  0  0  0  0  0
   19.3279  127.9627   -3.6111 C   0  0  0  0  0  0  0  0  0  0  0  0
   20.5389  128.3716   -3.0320 C   0  0  0  0  0  0  0  0  0  0  0  0
   21.1565  129.4998   -3.8789 C   0  0  0  0  0  0  0  0  0  0  0  0
   22.4951  130.0963   -3.3923 C   0  0  0  0  0  0  0  0  0  0  0  0
   23.1432  131.1688   -4.2769 C   0  0  0  0  0  0  0  0  0  0  0  0
   23.1506  129.7038   -2.2221 C   0  0  0  0  0  0  0  0  0  0  0  0
   24.3614  130.2127   -1.6992 C   0  0  0  0  0  0  0  0  0  0  0  0
   24.0197  131.2670   -0.7482 O   0  0  0  0  0  0  0  0  0  0  0  0
   25.1157  131.9122   -0.3002 N   0  0  0  0  0  0  0  0  0  0  0  0
   25.2986  132.2589    0.9578 C   0  0  0  0  0  0  0  0  0  0  0  0
   26.2998  132.8578    1.3246 O   0  0  0  0  0  0  0  0  0  0  0  0
   24.1976  131.9087    1.9683 C   0  0  0  0  0  0  0  0  0  0  0  0
   24.8197  130.5647    3.0413 P   0  0  0  0  0  0  0  0  0  0  0  0
   25.2911  129.4656    1.9540 O   0  0  0  0  0  0  0  0  0  0  0  0
   26.1204  131.0746    3.8029 O   0  5  0  0  0  0  0  0  0  0  0  0
   23.7316  130.1599    3.9765 O   0  5  0  0  0  0  0  0  0  0  0  0
   15.1233  129.9794   -6.2339 H   0  0  0  0  0  0  0  0  0  0  0  0
   14.4278  129.3370   -7.5644 H   0  0  0  0  0  0  0  0  0  0  0  0
   13.5527  130.2832   -6.5617 H   0  0  0  0  0  0  0  0  0  0  0  0
   12.4853  126.8321   -5.5663 H   0  0  0  0  0  0  0  0  0  0  0  0
   11.8212  128.2164   -6.1224 H   0  0  0  0  0  0  0  0  0  0  0  0
   12.6963  127.2702   -7.1252 H   0  0  0  0  0  0  0  0  0  0  0  0
   14.3451  127.1329   -4.2213 H   0  0  0  0  0  0  0  0  0  0  0  0
   15.6029  129.1454   -3.4862 H   0  0  0  0  0  0  0  0  0  0  0  0
   16.1713  129.1553   -5.0171 H   0  0  0  0  0  0  0  0  0  0  0  0
   17.2027  127.1333   -4.7441 H   0  0  0  0  0  0  0  0  0  0  0  0
   16.4059  126.8441   -3.3483 H   0  0  0  0  0  0  0  0  0  0  0  0
   18.7208  129.0818   -1.3856 H   0  0  0  0  0  0  0  0  0  0  0  0
   17.2347  129.5708   -1.8533 H   0  0  0  0  0  0  0  0  0  0  0  0
   17.4242  128.1271   -1.1139 H   0  0  0  0  0  0  0  0  0  0  0  0
   19.3980  127.5069   -4.4984 H   0  0  0  0  0  0  0  0  0  0  0  0
   21.1702  127.5968   -2.9972 H   0  0  0  0  0  0  0  0  0  0  0  0
   20.3692  128.7052   -2.1047 H   0  0  0  0  0  0  0  0  0  0  0  0
   20.4913  130.2455   -3.9175 H   0  0  0  0  0  0  0  0  0  0  0  0
   21.3054  129.1380   -4.7992 H   0  0  0  0  0  0  0  0  0  0  0  0
   23.9983  131.4744   -3.8580 H   0  0  0  0  0  0  0  0  0  0  0  0
   23.3331  130.7853   -5.1807 H   0  0  0  0  0  0  0  0  0  0  0  0
   22.5207  131.9460   -4.3686 H   0  0  0  0  0  0  0  0  0  0  0  0
   22.7117  128.9779   -1.6926 H   0  0  0  0  0  0  0  0  0  0  0  0
   24.9216  130.5875   -2.4379 H   0  0  0  0  0  0  0  0  0  0  0  0
   24.8657  129.4845   -1.2351 H   0  0  0  0  0  0  0  0  0  0  0  0
   25.8309  132.1407   -0.9607 H   0  0  0  0  0  0  0  0  0  0  0  0
   23.3773  131.6041    1.4841 H   0  0  0  0  0  0  0  0  0  0  0  0
   23.9785  132.7115    2.5228 H   0  0  0  0  0  0  0  0  0  0  0  0
  2  1  1  0  0  0  0
  3  2  1  0  0  0  0
  4  2  2  0  0  0  0
  5  4  1  0  0  0  0
  6  5  1  0  0  0  0
  7  6  1  0  0  0  0
  8  7  1  0  0  0  0
  9  7  2  0  0  0  0
 10  9  1  0  0  0  0
 11 10  1  0  0  0  0
 12 11  1  0  0  0  0
 13 12  1  0  0  0  0
 14 12  2  0  0  0  0
 15 14  1  0  0  0  0
 16 15  1  0  0  0  0
 17 16  1  0  0  0  0
 18 17  1  0  0  0  0
 19 18  2  0  0  0  0
 20 18  1  0  0  0  0
 21 20  1  0  0  0  0
 22 21  2  0  0  0  0
 23 21  1  0  0  0  0
 24 21  1  0  0  0  0
  1 25  1  0  0  0  0
  1 26  1  0  0  0  0
  1 27  1  0  0  0  0
  3 28  1  0  0  0  0
  3 29  1  0  0  0  0
  3 30  1  0  0  0  0
  4 31  1  0  0  0  0
  5 32  1  0  0  0  0
  5 33  1  0  0  0  0
  6 34  1  0  0  0  0
  6 35  1  0  0  0  0
  8 36  1  0  0  0  0
  8 37  1  0  0  0  0
  8 38  1  0  0  0  0
  9 39  1  0  0  0  0
 10 40  1  0  0  0  0
 10 41  1  0  0  0  0
 11 42  1  0  0  0  0
 11 43  1  0  0  0  0
 13 44  1  0  0  0  0
 13 45  1  0  0  0  0
 13 46  1  0  0  0  0
 14 47  1  0  0  0  0
 15 48  1  0  0  0  0
 15 49  1  0  0  0  0
 17 50  1  0  0  0  0
 20 51  1  0  0  0  0
 20 52  1  0  0  0  0
M  CHG  2  23  -1  24  -1
M  END
> <BIOSOLVEIT.HYDE_ESTIMATED_AFFINITY_LOWER_BOUNDARY [nM]>
0.172445

> <BIOSOLVEIT.HYDE_ESTIMATED_AFFINITY_UPPER_BOUNDARY [nM]>
17.133395

> <BIOSOLVEIT.HYDE_LIGAND_EFFICIENCY range: ++, +, 0, -, -->
+

> <BIOSOLVEIT.HYDE_LIGAND_LIPOPHILIC_EFFICIENCY range: ++, +, 0, -, -->
+

> <BIOSOLVEIT.INTER_CLASH range: red, yellow, green>
green

> <BIOSOLVEIT.INTRA_CLASH range: red, yellow, green>
green

> <BIOSOLVEIT.LOGP>
2.3671

> <BIOSOLVEIT.MOLECULAR WEIGHT>
357.384

> <BIOSOLVEIT.MOLECULE_CHECKSUM>
LTUwLjAyOTM7Mi4wODQ1NQ==

> <BIOSOLVEIT.TORSION_QUALITY range: red, yellow, green, not rotatable>
green

> <BIOSOLVEIT.TPSA>
101.52

$$$$
