@<TRIPOS>MOLECULE
UNK
50 53 0 0 0
SMALL
GASTEIGER

@<TRIPOS>ATOM
   1    O       18.1590   32.4060   62.3400 O.2   1 UNL -0.2689
   2    C       17.9930   33.5360   61.8080 C.2   1 UNL  0.2567
   3    N       17.9550   33.6250   60.3730 N.am  1 UNL -0.3219
   4    C       18.3820   34.7730   59.6190 C.ar  1 UNL  0.0413
   5    C       19.6140   34.7510   58.9720 C.ar  1 UNL -0.0348
   6    C       20.0350   35.8570   58.2400 C.ar  1 UNL -0.0175
   7    C       19.2120   36.9760   58.1660 C.ar  1 UNL  0.1291
   8    O       19.6090   38.0550   57.4590 O.3   1 UNL -0.4058
   9    C       19.6920   38.1230   56.0370 C.3   1 UNL  0.5726
  10    F       18.4480   37.8950   55.4760 F     1 UNL -0.1323
  11    F       20.5670   37.1520   55.5920 F     1 UNL -0.1323
  12    F       20.1660   39.3630   55.6460 F     1 UNL -0.1323
  13    C       17.9790   37.0070   58.8090 C.ar  1 UNL -0.0175
  14    C       17.5650   35.8970   59.5390 C.ar  1 UNL -0.0348
  15    C       17.8020   34.7250   62.6740 C.ar  1 UNL  0.0588
  16    C       18.4540   35.9270   62.4190 C.ar  1 UNL  0.0421
  17    N       18.2700   36.9930   63.2130 N.ar  1 UNL -0.2378
  18    C       17.4560   36.9420   64.2770 C.ar  1 UNL  0.1362
  19    N       17.2870   38.0740   65.0850 N.2   1 UNL -0.3534
  20    C       16.0270   38.7710   65.3500 C.3   1 UNL  0.0218
  21    C       16.1710   39.2710   66.7740 C.3   1 UNL -0.0075
  22    C       17.6590   39.2760   67.0690 C.3   1 UNL  0.0732
  23    O       17.8940   38.3790   68.1460 O.3   1 UNL -0.3912
  24    C       18.3360   38.7990   65.7990 C.3   1 UNL  0.0453
  25    C       16.7790   35.7640   64.5800 C.ar  1 UNL  0.0282
  26    C       15.8910   35.6710   65.7220 C.ar  1 UNL  0.0221
  27    C       14.5970   35.1800   65.5830 C.ar  1 UNL  0.0382
  28    N       13.7920   35.1000   66.6530 N.ar  1 UNL -0.2442
  29    C       14.2100   35.4870   67.8670 C.ar  1 UNL  0.1148
  30    N       15.4530   35.9630   68.0280 N.ar  1 UNL -0.2442
  31    C       16.2980   36.0630   66.9930 C.ar  1 UNL  0.0382
  32    C       16.9520   34.6450   63.7720 C.ar  1 UNL -0.0362
  33    H       17.5982   32.8123   59.8504 H     1 UNL  0.1698
  34    H       20.2548   33.8595   59.0393 H     1 UNL  0.0646
  35    H       21.0074   35.8465   57.7258 H     1 UNL  0.0663
  36    H       17.3385   37.8987   58.7412 H     1 UNL  0.0663
  37    H       16.5924   35.9079   60.0527 H     1 UNL  0.0646
  38    H       19.1298   36.0048   61.5545 H     1 UNL  0.0849
  39    H       15.8920   39.6114   64.6532 H     1 UNL  0.0494
  40    H       15.1498   38.1204   65.2185 H     1 UNL  0.0494
  41    H       15.7602   40.2873   66.8653 H     1 UNL  0.0312
  42    H       15.6229   38.6320   67.4819 H     1 UNL  0.0312
  43    H       18.0439   40.2659   67.3551 H     1 UNL  0.0620
  44    H       17.7693   38.8550   69.0051 H     1 UNL  0.2105
  45    H       19.1802   38.1337   66.0330 H     1 UNL  0.0521
  46    H       18.7539   39.6269   65.2074 H     1 UNL  0.0521
  47    H       14.2340   34.8574   64.5960 H     1 UNL  0.0848
  48    H       13.5330   35.4139   68.7309 H     1 UNL  0.1062
  49    H       17.3139   36.4552   67.1485 H     1 UNL  0.0848
  50    H       16.4227   33.7078   63.9988 H     1 UNL  0.0640
@<TRIPOS>BOND
    1     2     1  2
    2     3     2 am
    3     4     3  1
    4     5     4 ar
    5     6     5 ar
    6     7     6 ar
    7     8     7  1
    8     9     8  1
    9    10     9  1
   10    11     9  1
   11    12     9  1
   12    13     7 ar
   13    14    13 ar
   14    14     4 ar
   15    15     2  1
   16    16    15 ar
   17    17    16 ar
   18    18    17 ar
   19    19    18  1
   20    20    19  1
   21    21    20  1
   22    22    21  1
   23    23    22  1
   24    24    19  1
   25    24    22  1
   26    25    18 ar
   27    26    25  1
   28    27    26 ar
   29    28    27 ar
   30    29    28 ar
   31    30    29 ar
   32    31    30 ar
   33    31    26 ar
   34    32    25 ar
   35    32    15 ar
   36     3    33  1
   37     5    34  1
   38     6    35  1
   39    13    36  1
   40    14    37  1
   41    16    38  1
   42    20    39  1
   43    20    40  1
   44    21    41  1
   45    21    42  1
   46    22    43  1
   47    23    44  1
   48    24    45  1
   49    24    46  1
   50    27    47  1
   51    29    48  1
   52    31    49  1
   53    32    50  1