@<TRIPOS>MOLECULE
UNK
48 51 0 0 0
SMALL
GASTEIGER

@<TRIPOS>ATOM
   1    C       -0.6940   11.6080   19.8110 C.3   1 UNL  0.0775
   2    O       -1.4620   10.5130   20.2990 O.3   1 UNL -0.4961
   3    C       -2.0480    9.5780   19.5200 C.ar  1 UNL  0.1263
   4    C       -1.4490    9.2470   18.3100 C.ar  1 UNL -0.0193
   5    C       -2.0280    8.2880   17.4850 C.ar  1 UNL -0.0585
   6    C       -3.2070    7.6590   17.8720 C.ar  1 UNL -0.0614
   7    C       -3.8070    7.9890   19.0830 C.ar  1 UNL -0.0506
   8    C       -3.2280    8.9480   19.9070 C.ar  1 UNL  0.0259
   9    C       -3.8540    9.2920   21.1700 C.ar  1 UNL  0.0124
  10    C       -4.9660   10.0690   21.3070 C.ar  1 UNL  0.0112
  11    N       -5.2310   10.1520   22.6420 N.ar  1 UNL -0.3455
  12    C       -4.2910    9.4370   23.3450 C.ar  1 UNL  0.1374
  13    N       -4.0840    9.1910   24.6490 N.ar  1 UNL -0.2379
  14    C       -3.0630    8.4330   25.0810 C.ar  1 UNL  0.0372
  15    C       -2.1580    7.8550   24.1950 C.ar  1 UNL  0.0023
  16    C       -1.0450    7.0280   24.6190 C.ar  1 UNL  0.0024
  17    C        0.1730    7.0520   23.9480 C.ar  1 UNL  0.0347
  18    N        1.1920    6.2790   24.3550 N.ar  1 UNL -0.2633
  19    C        1.0720    5.4650   25.4140 C.ar  1 UNL  0.0396
  20    C       -0.1240    5.4010   26.1210 C.ar  1 UNL  0.0584
  21    C       -0.2770    4.5100   27.2910 C.2   1 UNL  0.2544
  22    O       -0.7310    3.3460   27.1210 O.2   1 UNL -0.2690
  23    N        0.0720    4.9470   28.6180 N.am  1 UNL -0.3447
  24    C       -0.1120    4.0460   29.7600 C.3   1 UNL  0.0091
  25    C        0.4570    6.3440   28.8260 C.3   1 UNL  0.0091
  26    C       -1.1960    6.1910   25.7200 C.ar  1 UNL -0.0384
  27    C       -2.3420    8.0890   22.8380 C.ar  1 UNL -0.0411
  28    C       -3.4150    8.8810   22.4500 C.ar  1 UNL  0.0273
  29    H       -0.2921   12.1810   20.6596 H     1 UNL  0.0669
  30    H        0.1370   11.2288   19.1982 H     1 UNL  0.0669
  31    H       -1.3336   12.2602   19.1982 H     1 UNL  0.0669
  32    H       -0.5163    9.7438   18.0045 H     1 UNL  0.0662
  33    H       -1.5539    8.0273   16.5273 H     1 UNL  0.0624
  34    H       -3.6650    6.9004   17.2202 H     1 UNL  0.0623
  35    H       -4.7392    7.4915   19.3887 H     1 UNL  0.0631
  36    H       -5.5401   10.5394   20.4951 H     1 UNL  0.0823
  37    H       -6.0161   10.6714   23.0600 H     1 UNL  0.1675
  38    H       -2.9388    8.2648   26.1609 H     1 UNL  0.0847
  39    H        0.3023    7.7102   23.0762 H     1 UNL  0.0847
  40    H        1.9249    4.8440   25.7254 H     1 UNL  0.0848
  41    H        0.0036    4.6121   30.6960 H     1 UNL  0.0457
  42    H       -1.1188    3.6047   29.7204 H     1 UNL  0.0457
  43    H        0.6412    3.2453   29.7204 H     1 UNL  0.0457
  44    H        0.5143    6.5518   29.9047 H     1 UNL  0.0457
  45    H        1.4389    6.5263   28.3648 H     1 UNL  0.0457
  46    H       -0.2929    7.0036   28.3648 H     1 UNL  0.0457
  47    H       -2.1503    6.1546   26.2659 H     1 UNL  0.0639
  48    H       -1.6573    7.6592   22.0920 H     1 UNL  0.0638
@<TRIPOS>BOND
    1     2     1  1
    2     3     2  1
    3     4     3 ar
    4     5     4 ar
    5     6     5 ar
    6     7     6 ar
    7     8     7 ar
    8     8     3 ar
    9     9     8  1
   10    10     9 ar
   11    11    10 ar
   12    12    11 ar
   13    13    12 ar
   14    14    13 ar
   15    15    14 ar
   16    16    15  1
   17    17    16 ar
   18    18    17 ar
   19    19    18 ar
   20    20    19 ar
   21    21    20  1
   22    22    21  2
   23    23    21 am
   24    24    23  1
   25    25    23  1
   26    26    20 ar
   27    26    16 ar
   28    27    15 ar
   29    28     9 ar
   30    28    27 ar
   31    28    12 ar
   32     1    29  1
   33     1    30  1
   34     1    31  1
   35     4    32  1
   36     5    33  1
   37     6    34  1
   38     7    35  1
   39    10    36  1
   40    11    37  1
   41    14    38  1
   42    17    39  1
   43    19    40  1
   44    24    41  1
   45    24    42  1
   46    24    43  1
   47    25    44  1
   48    25    45  1
   49    25    46  1
   50    26    47  1
   51    27    48  1