@<TRIPOS>MOLECULE
UNK
47 50 0 0 0
SMALL
GASTEIGER

@<TRIPOS>ATOM
   1    C       20.3390   52.6270   18.3000 C.3   1 UNL -0.0377
   2    C       20.8740   51.2120   18.1560 C.ar  1 UNL -0.0273
   3    C       22.2510   51.0150   18.1410 C.ar  1 UNL -0.0552
   4    C       22.7690   49.7310   18.0100 C.ar  1 UNL -0.0381
   5    C       21.8970   48.6520   17.8970 C.ar  1 UNL  0.0431
   6    N       22.4080   47.3550   17.7650 N.am  1 UNL -0.3219
   7    C       22.3990   46.3800   18.8180 C.2   1 UNL  0.2567
   8    O       23.3140   45.5140   18.8520 O.2   1 UNL -0.2689
   9    C       21.3170   46.3350   19.8310 C.ar  1 UNL  0.0580
  10    C       20.6620   45.1340   20.0800 C.ar  1 UNL -0.0464
  11    C       19.6490   45.0960   21.0310 C.ar  1 UNL -0.0430
  12    C       19.3240   46.2670   21.7080 C.ar  1 UNL  0.0268
  13    N       19.9700   47.4140   21.4500 N.ar  1 UNL -0.2639
  14    C       20.9510   47.4760   20.5370 C.ar  1 UNL  0.0395
  15    C       20.5190   48.8410   17.9110 C.ar  1 UNL -0.0145
  16    C       20.0080   50.1280   18.0420 C.ar  1 UNL  0.0459
  17    N       18.6240   50.3340   18.0580 N.pl3 1 UNL -0.3238
  18    C       17.6780   49.2550   18.0900 C.ar  1 UNL  0.2272
  19    N       18.0860   48.0500   18.5130 N.ar  1 UNL -0.2213
  20    C       17.2460   47.0050   18.5640 C.ar  1 UNL  0.0330
  21    C       15.9220   47.1700   18.1710 C.ar  1 UNL -0.0171
  22    C       15.5090   48.4240   17.7340 C.ar  1 UNL  0.0773
  23    C       14.1280   48.6050   17.3220 C.ar  1 UNL  0.0187
  24    C       13.7450   48.2370   16.0370 C.ar  1 UNL -0.0497
  25    C       12.4220   48.4110   15.6460 C.ar  1 UNL -0.0431
  26    C       11.5210   48.9500   16.5580 C.ar  1 UNL  0.0268
  27    N       11.9150   49.2970   17.7930 N.ar  1 UNL -0.2640
  28    C       13.1850   49.1390   18.1940 C.ar  1 UNL  0.0362
  29    N       16.4020   49.4260   17.7080 N.ar  1 UNL -0.2127
  30    H       20.2447   52.8765   19.3672 H     1 UNL  0.0280
  31    H       21.0326   53.3320   17.8185 H     1 UNL  0.0280
  32    H       19.3524   52.6968   17.8185 H     1 UNL  0.0280
  33    H       22.9304   51.8752   18.2328 H     1 UNL  0.0627
  34    H       23.8570   49.5697   17.9958 H     1 UNL  0.0645
  35    H       22.8146   47.0846   16.8581 H     1 UNL  0.1698
  36    H       20.9426   44.2235   19.5302 H     1 UNL  0.0632
  37    H       19.1148   44.1583   21.2441 H     1 UNL  0.0639
  38    H       18.5263   46.2522   22.4653 H     1 UNL  0.0840
  39    H       21.4659   48.4293   20.3468 H     1 UNL  0.0848
  40    H       19.8397   47.9807   17.8193 H     1 UNL  0.0667
  41    H       18.2691   51.3009   18.0463 H     1 UNL  0.1697
  42    H       17.6019   46.0248   18.9141 H     1 UNL  0.0842
  43    H       15.2166   46.3266   18.2051 H     1 UNL  0.0662
  44    H       14.4804   47.8129   15.3375 H     1 UNL  0.0631
  45    H       12.0944   48.1278   14.6348 H     1 UNL  0.0639
  46    H       10.4711   49.0939   16.2630 H     1 UNL  0.0840
  47    H       13.4808   49.4316   19.2123 H     1 UNL  0.0847
@<TRIPOS>BOND
    1     2     1  1
    2     3     2 ar
    3     4     3 ar
    4     5     4 ar
    5     6     5  1
    6     7     6 am
    7     8     7  2
    8     9     7  1
    9    10     9 ar
   10    11    10 ar
   11    12    11 ar
   12    13    12 ar
   13    14    13 ar
   14    14     9 ar
   15    15     5 ar
   16    16    15 ar
   17    16     2 ar
   18    17    16  1
   19    18    17  1
   20    19    18 ar
   21    20    19 ar
   22    21    20 ar
   23    22    21 ar
   24    23    22  1
   25    24    23 ar
   26    25    24 ar
   27    26    25 ar
   28    27    26 ar
   29    28    23 ar
   30    28    27 ar
   31    29    22 ar
   32    29    18 ar
   33     1    30  1
   34     1    31  1
   35     1    32  1
   36     3    33  1
   37     4    34  1
   38     6    35  1
   39    10    36  1
   40    11    37  1
   41    12    38  1
   42    14    39  1
   43    15    40  1
   44    17    41  1
   45    20    42  1
   46    21    43  1
   47    24    44  1
   48    25    45  1
   49    26    46  1
   50    28    47  1