@<TRIPOS>MOLECULE
UNK
66 71 0 0 0
SMALL
GASTEIGER

@<TRIPOS>ATOM
   1    C       20.4180   -5.2830   23.9130 C.3   1 UNL -0.0207
   2    C       18.9620   -5.4820   23.5210 C.ar  1 UNL  0.0556
   3    C       18.5280   -5.9430   22.3180 C.ar  1 UNL  0.0316
   4    N       17.1690   -5.9680   22.3950 N.ar  1 UNL -0.3060
   5    C       16.2920   -6.3740   21.3820 C.ar  1 UNL  0.0491
   6    C       16.6860   -7.3800   20.5060 C.ar  1 UNL -0.0143
   7    C       15.8080   -7.7780   19.5030 C.ar  1 UNL  0.0437
   8    N       16.1970   -8.8170   18.5880 N.am  1 UNL -0.3219
   9    C       16.0460   -8.7220   17.1620 C.2   1 UNL  0.2552
  10    O       15.1050   -8.0350   16.6780 O.2   1 UNL -0.2689
  11    C       16.9320   -9.4460   16.2700 C.ar  1 UNL  0.0403
  12    C       17.7640  -10.4370   16.7790 C.ar  1 UNL -0.0491
  13    C       18.6150  -11.1290   15.9240 C.ar  1 UNL -0.0579
  14    C       18.6310  -10.8300   14.5660 C.ar  1 UNL -0.0438
  15    C       19.5730  -11.6080   13.6620 C.3   1 UNL -0.0392
  16    C       17.7950   -9.8370   14.0620 C.ar  1 UNL -0.0205
  17    C       17.7880   -9.4940   12.6230 C.2   1 UNL -0.0379
  18    C       17.2140  -10.2850   11.7080 C.2   1 UNL  0.0125
  19    N       17.2010   -9.9700   10.3440 N.ar  1 UNL -0.2901
  20    C       16.1430  -10.1770    9.5090 C.ar  1 UNL  0.1013
  21    N       16.4930   -9.7650    8.3110 N.ar  1 UNL -0.2306
  22    C       17.7730   -9.2920    8.3700 C.ar  1 UNL  0.1503
  23    C       18.6640   -8.7420    7.4540 C.ar  1 UNL  0.1574
  24    N       18.2790   -8.5800    6.1180 N.pl3 1 UNL -0.3654
  25    C       19.0390   -8.0200    4.9850 C.3   1 UNL  0.0277
  26    C       18.8230   -8.8140    3.7290 C.3   1 UNL -0.0309
  27    C       20.1030   -8.9640    4.5000 C.3   1 UNL -0.0309
  28    N       19.8940   -8.3630    7.8330 N.ar  1 UNL -0.2171
  29    C       20.3110   -8.4970    9.0990 C.ar  1 UNL  0.1199
  30    N       19.4750   -9.0240   10.0040 N.ar  1 UNL -0.2162
  31    C       18.2390   -9.4100    9.6550 C.ar  1 UNL  0.1690
  32    C       16.9430   -9.1410   14.9130 C.ar  1 UNL -0.0419
  33    C       14.5560   -7.1870   19.3670 C.ar  1 UNL -0.0261
  34    C       14.1880   -6.1830   20.2550 C.ar  1 UNL  0.0596
  35    C       12.8240   -5.5250   20.1220 C.3   1 UNL  0.4161
  36    F       12.8670   -4.2130   20.5620 F     1 UNL -0.1661
  37    F       11.9060   -6.2250   20.8820 F     1 UNL -0.1661
  38    F       12.4080   -5.5230   18.8020 F     1 UNL -0.1661
  39    C       15.0460   -5.7670   21.2680 C.ar  1 UNL -0.0256
  40    C       16.8150   -5.5260   23.6340 C.ar  1 UNL  0.0995
  41    N       17.8910   -5.2290   24.3250 N.ar  1 UNL -0.2417
  42    H       20.5042   -5.2712   25.0096 H     1 UNL  0.0296
  43    H       21.0231   -6.1068   23.5065 H     1 UNL  0.0296
  44    H       20.7798   -4.3271   23.5065 H     1 UNL  0.0296
  45    H       19.1482   -6.2360   21.4580 H     1 UNL  0.0842
  46    H       17.6744   -7.8526   20.6046 H     1 UNL  0.0667
  47    H       16.6071   -9.6781   18.9768 H     1 UNL  0.1698
  48    H       17.7492  -10.6726   17.8534 H     1 UNL  0.0631
  49    H       19.2757  -11.9132   16.3221 H     1 UNL  0.0626
  50    H       20.2759  -12.1885   14.2776 H     1 UNL  0.0280
  51    H       18.9905  -12.2918   13.0271 H     1 UNL  0.0280
  52    H       20.1344  -10.9068   13.0271 H     1 UNL  0.0280
  53    H       18.2690   -8.5608   12.2948 H     1 UNL  0.0645
  54    H       16.7346  -11.2175   12.0405 H     1 UNL  0.0823
  55    H       15.1714  -10.6108    9.7879 H     1 UNL  0.1048
  56    H       17.3256   -8.8985    5.8934 H     1 UNL  0.1620
  57    H       19.0052   -6.9545    5.2561 H     1 UNL  0.0528
  58    H       18.0896   -9.6338    3.7160 H     1 UNL  0.0288
  59    H       18.5667   -8.5679    2.6880 H     1 UNL  0.0288
  60    H       20.3070   -9.8934    5.0520 H     1 UNL  0.0288
  61    H       21.1722   -8.8731    4.2580 H     1 UNL  0.0288
  62    H       21.3230   -8.1797    9.3908 H     1 UNL  0.1064
  63    H       16.2831   -8.3556   14.5160 H     1 UNL  0.0638
  64    H       13.8690   -7.5087   18.5704 H     1 UNL  0.0651
  65    H       14.7443   -4.9723   21.9662 H     1 UNL  0.0651
  66    H       15.7822   -5.4320   24.0006 H     1 UNL  0.1047
@<TRIPOS>BOND
    1     2     1  1
    2     3     2 ar
    3     4     3 ar
    4     5     4  1
    5     6     5 ar
    6     7     6 ar
    7     8     7  1
    8     9     8 am
    9    10     9  2
   10    11     9  1
   11    12    11 ar
   12    13    12 ar
   13    14    13 ar
   14    15    14  1
   15    16    14 ar
   16    17    16  1
   17    18    17  2
   18    19    18  1
   19    20    19 ar
   20    21    20 ar
   21    22    21 ar
   22    23    22 ar
   23    24    23  1
   24    25    24  1
   25    26    25  1
   26    27    26  1
   27    27    25  1
   28    28    23 ar
   29    29    28 ar
   30    30    29 ar
   31    31    30 ar
   32    31    22 ar
   33    31    19 ar
   34    32    16 ar
   35    32    11 ar
   36    33     7 ar
   37    34    33 ar
   38    35    34  1
   39    36    35  1
   40    37    35  1
   41    38    35  1
   42    39    34 ar
   43    39     5 ar
   44    40     4 ar
   45    41    40 ar
   46    41     2 ar
   47     1    42  1
   48     1    43  1
   49     1    44  1
   50     3    45  1
   51     6    46  1
   52     8    47  1
   53    12    48  1
   54    13    49  1
   55    15    50  1
   56    15    51  1
   57    15    52  1
   58    17    53  1
   59    18    54  1
   60    20    55  1
   61    24    56  1
   62    25    57  1
   63    26    58  1
   64    26    59  1
   65    27    60  1
   66    27    61  1
   67    29    62  1
   68    32    63  1
   69    33    64  1
   70    39    65  1
   71    40    66  1