@<TRIPOS>MOLECULE
UNK
70 74 0 0 0
SMALL
GASTEIGER

@<TRIPOS>ATOM
   1    C       16.5230   15.9300   52.4220 C.3   1 UNL -0.0377
   2    C       15.1960   15.7090   53.1280 C.ar  1 UNL -0.0273
   3    C       14.0800   16.4170   52.6920 C.ar  1 UNL -0.0552
   4    C       12.8520   16.2350   53.3200 C.ar  1 UNL -0.0381
   5    C       12.7550   15.3410   54.3810 C.ar  1 UNL  0.0431
   6    N       11.5230   15.1500   55.0200 N.am  1 UNL -0.3219
   7    C       10.3230   15.8570   54.6660 C.2   1 UNL  0.2552
   8    O       10.4010   17.0250   54.1950 O.2   1 UNL -0.2689
   9    C        8.9880   15.2510   54.8930 C.ar  1 UNL  0.0397
  10    C        7.8810   16.0780   55.0490 C.ar  1 UNL -0.0490
  11    C        6.6220   15.5230   55.2620 C.ar  1 UNL -0.0526
  12    C        6.4930   14.1390   55.3160 C.ar  1 UNL  0.0062
  13    C        5.1240   13.5190   55.5490 C.3   1 UNL  0.1031
  14    N        4.2910   13.5330   54.3230 N.4   1 UNL -0.3219
  15    C        2.9040   13.1920   54.6690 C.3   1 UNL  0.1273
  16    C        2.0590   13.0510   53.4110 C.3   1 UNL  0.1268
  17    N        2.6540   12.1020   52.4550 N.4   1 UNL -0.3281
  18    C        1.7140   11.0150   52.1400 C.3   1 UNL  0.0668
  19    C        3.9360   11.5300   52.8960 C.3   1 UNL  0.1268
  20    C        4.8970   12.6240   53.3320 C.3   1 UNL  0.1273
  21    C        7.5970   13.3080   55.1610 C.ar  1 UNL -0.0526
  22    C        8.8530   13.8670   54.9480 C.ar  1 UNL -0.0490
  23    C       13.8660   14.6290   54.8230 C.ar  1 UNL -0.0145
  24    C       15.0910   14.8170   54.1910 C.ar  1 UNL  0.0459
  25    N       16.2450   14.0900   54.6340 N.pl3 1 UNL -0.3238
  26    C       17.4290   14.7250   55.0330 C.ar  1 UNL  0.2272
  27    N       17.5180   16.0590   54.9220 N.ar  1 UNL -0.2213
  28    C       18.6260   16.7190   55.2880 C.ar  1 UNL  0.0330
  29    C       19.7100   16.0110   55.7950 C.ar  1 UNL -0.0171
  30    C       19.6090   14.6280   55.9070 C.ar  1 UNL  0.0773
  31    C       20.7360   13.8810   56.4350 C.ar  1 UNL  0.0187
  32    C       21.7680   14.5610   57.0730 C.ar  1 UNL -0.0497
  33    C       22.8460   13.8410   57.5790 C.ar  1 UNL -0.0431
  34    C       22.8560   12.4590   57.4280 C.ar  1 UNL  0.0268
  35    N       21.8480   11.8260   56.8080 N.ar  1 UNL -0.2640
  36    C       20.7980   12.4970   56.3120 C.ar  1 UNL  0.0362
  37    N       18.4690   14.0310   55.5210 N.ar  1 UNL -0.2127
  38    H       17.3186   16.0625   53.1699 H     1 UNL  0.0280
  39    H       16.7531   15.0578   51.7925 H     1 UNL  0.0280
  40    H       16.4580   16.8297   51.7925 H     1 UNL  0.0280
  41    H       14.1688   17.1204   51.8510 H     1 UNL  0.0627
  42    H       11.9666   16.7926   52.9808 H     1 UNL  0.0645
  43    H       11.4746   14.4641   55.7869 H     1 UNL  0.1698
  44    H        8.0000   17.1706   55.0041 H     1 UNL  0.0631
  45    H        5.7412   16.1702   55.3859 H     1 UNL  0.0628
  46    H        5.2572   12.4771   55.8758 H     1 UNL  0.0979
  47    H        4.6080   14.1145   56.3166 H     1 UNL  0.0979
  48    H        4.2593   14.4699   53.8963 H     1 UNL  0.3483
  49    H        2.8923   12.2407   55.2212 H     1 UNL  0.0985
  50    H        2.4846   13.9970   55.2904 H     1 UNL  0.0985
  51    H        1.0582   12.6918   53.6929 H     1 UNL  0.0985
  52    H        2.0035   14.0361   52.9247 H     1 UNL  0.0985
  53    H        2.8514   12.6574   51.6103 H     1 UNL  0.3477
  54    H        1.3345   10.5761   53.0745 H     1 UNL  0.0886
  55    H        0.8730   11.4155   51.5550 H     1 UNL  0.0886
  56    H        2.2317   10.2406   51.5550 H     1 UNL  0.0886
  57    H        3.7552   10.8511   53.7424 H     1 UNL  0.0985
  58    H        4.3850   10.9831   52.0538 H     1 UNL  0.0985
  59    H        5.7877   12.1568   53.7774 H     1 UNL  0.0985
  60    H        5.1594   13.2178   52.4440 H     1 UNL  0.0985
  61    H        7.4780   12.2154   55.2065 H     1 UNL  0.0628
  62    H        9.7335   13.2194   54.8239 H     1 UNL  0.0631
  63    H       13.7765   13.9249   55.6634 H     1 UNL  0.0667
  64    H       16.2021   13.0612   54.6600 H     1 UNL  0.1697
  65    H       18.6772   17.8132   55.1879 H     1 UNL  0.0842
  66    H       20.6283   16.5335   56.1012 H     1 UNL  0.0662
  67    H       21.7325   15.6555   57.1764 H     1 UNL  0.0631
  68    H       23.6741   14.3553   58.0886 H     1 UNL  0.0639
  69    H       23.7017   11.8764   57.8221 H     1 UNL  0.0840
  70    H       19.9858   11.9527   55.8079 H     1 UNL  0.0847
@<TRIPOS>BOND
    1     2     1  1
    2     3     2 ar
    3     4     3 ar
    4     5     4 ar
    5     6     5  1
    6     7     6 am
    7     8     7  2
    8     9     7  1
    9    10     9 ar
   10    11    10 ar
   11    12    11 ar
   12    13    12  1
   13    14    13  1
   14    15    14  1
   15    16    15  1
   16    17    16  1
   17    18    17  1
   18    19    17  1
   19    20    19  1
   20    20    14  1
   21    21    12 ar
   22    22    21 ar
   23    22     9 ar
   24    23     5 ar
   25    24     2 ar
   26    24    23 ar
   27    25    24  1
   28    26    25  1
   29    27    26 ar
   30    28    27 ar
   31    29    28 ar
   32    30    29 ar
   33    31    30  1
   34    32    31 ar
   35    33    32 ar
   36    34    33 ar
   37    35    34 ar
   38    36    31 ar
   39    36    35 ar
   40    37    30 ar
   41    37    26 ar
   42     1    38  1
   43     1    39  1
   44     1    40  1
   45     3    41  1
   46     4    42  1
   47     6    43  1
   48    10    44  1
   49    11    45  1
   50    13    46  1
   51    13    47  1
   52    14    48  1
   53    15    49  1
   54    15    50  1
   55    16    51  1
   56    16    52  1
   57    17    53  1
   58    18    54  1
   59    18    55  1
   60    18    56  1
   61    19    57  1
   62    19    58  1
   63    20    59  1
   64    20    60  1
   65    21    61  1
   66    22    62  1
   67    23    63  1
   68    25    64  1
   69    28    65  1
   70    29    66  1
   71    32    67  1
   72    33    68  1
   73    34    69  1
   74    36    70  1