@<TRIPOS>MOLECULE
UNK
47 49 0 0 0
SMALL
GASTEIGER

@<TRIPOS>ATOM
   1    O       20.6180   41.8210   50.6500 O.2   1 UNL -0.2689
   2    C       19.8740   42.0910   49.6680 C.2   1 UNL  0.2552
   3    N       18.4710   41.7780   49.7310 N.am  1 UNL -0.3220
   4    C       17.7110   41.7620   50.9520 C.ar  1 UNL  0.0413
   5    C       18.2760   42.2630   52.1200 C.ar  1 UNL -0.0348
   6    C       17.5480   42.2520   53.3060 C.ar  1 UNL -0.0175
   7    C       16.2560   41.7350   53.3040 C.ar  1 UNL  0.1291
   8    O       15.5400   41.7180   54.4470 O.3   1 UNL -0.4058
   9    C       16.0130   41.2530   55.7100 C.3   1 UNL  0.5726
  10    F       17.1110   41.9940   56.1090 F     1 UNL -0.1323
  11    F       16.3900   39.9300   55.5870 F     1 UNL -0.1323
  12    F       15.0110   41.3460   56.6590 F     1 UNL -0.1323
  13    C       15.6830   41.2310   52.1400 C.ar  1 UNL -0.0175
  14    C       16.4180   41.2470   50.9600 C.ar  1 UNL -0.0348
  15    C       20.4670   42.6800   48.4430 C.ar  1 UNL  0.0402
  16    C       21.8340   42.5680   48.2130 C.ar  1 UNL -0.0494
  17    C       22.3730   43.1270   47.0590 C.ar  1 UNL -0.0610
  18    C       21.5660   43.7900   46.1400 C.ar  1 UNL -0.0534
  19    C       20.2010   43.8900   46.3900 C.ar  1 UNL  0.0070
  20    C       19.3080   44.6120   45.3930 C.3   1 UNL  0.1029
  21    N       19.9140   44.6600   44.0420 N.4   1 UNL -0.3274
  22    C       19.0450   45.3650   43.0870 C.3   1 UNL  0.1012
  23    C       19.6300   45.3440   41.6840 C.3   1 UNL  0.0960
  24    O       20.8830   44.6690   41.6450 O.3   1 UNL -0.3698
  25    C       20.8210   43.3460   42.1660 C.3   1 UNL  0.0960
  26    C       20.1920   43.3020   43.5490 C.3   1 UNL  0.1012
  27    C       19.6410   43.3380   47.5380 C.ar  1 UNL -0.0406
  28    H       17.9834   41.5527   48.8521 H     1 UNL  0.1698
  29    H       19.2986   42.6681   52.1063 H     1 UNL  0.0646
  30    H       17.9883   42.6470   54.2334 H     1 UNL  0.0663
  31    H       14.6608   40.8249   52.1535 H     1 UNL  0.0663
  32    H       15.9775   40.8525   50.0324 H     1 UNL  0.0646
  33    H       22.4798   42.0447   48.9335 H     1 UNL  0.0631
  34    H       23.4535   43.0436   46.8702 H     1 UNL  0.0623
  35    H       22.0005   44.2285   45.2295 H     1 UNL  0.0628
  36    H       18.3444   44.0849   45.3320 H     1 UNL  0.0979
  37    H       19.1730   45.6461   45.7429 H     1 UNL  0.0979
  38    H       20.7995   45.1801   44.1210 H     1 UNL  0.3480
  39    H       18.0598   44.8759   43.0712 H     1 UNL  0.0949
  40    H       18.9557   46.4130   43.4090 H     1 UNL  0.0949
  41    H       18.9270   44.8294   41.0125 H     1 UNL  0.0627
  42    H       19.7912   46.3842   41.3645 H     1 UNL  0.0627
  43    H       20.2216   42.7247   41.4844 H     1 UNL  0.0627
  44    H       21.8506   42.9683   42.2513 H     1 UNL  0.0627
  45    H       19.2495   42.7371   43.4983 H     1 UNL  0.0949
  46    H       20.8953   42.8141   44.2399 H     1 UNL  0.0949
  47    H       18.5605   43.4209   47.7270 H     1 UNL  0.0636
@<TRIPOS>BOND
    1     2     1  2
    2     3     2 am
    3     4     3  1
    4     5     4 ar
    5     6     5 ar
    6     7     6 ar
    7     8     7  1
    8     9     8  1
    9    10     9  1
   10    11     9  1
   11    12     9  1
   12    13     7 ar
   13    14    13 ar
   14    14     4 ar
   15    15     2  1
   16    16    15 ar
   17    17    16 ar
   18    18    17 ar
   19    19    18 ar
   20    20    19  1
   21    21    20  1
   22    22    21  1
   23    23    22  1
   24    24    23  1
   25    25    24  1
   26    26    25  1
   27    26    21  1
   28    27    15 ar
   29    27    19 ar
   30     3    28  1
   31     5    29  1
   32     6    30  1
   33    13    31  1
   34    14    32  1
   35    16    33  1
   36    17    34  1
   37    18    35  1
   38    20    36  1
   39    20    37  1
   40    21    38  1
   41    22    39  1
   42    22    40  1
   43    23    41  1
   44    23    42  1
   45    25    43  1
   46    25    44  1
   47    26    45  1
   48    26    46  1
   49    27    47  1