@<TRIPOS>MOLECULE
UNK
40 42 0 0 0
SMALL
GASTEIGER

@<TRIPOS>ATOM
   1    N       13.3640   45.4980   63.5540 N.am  1 UNL -0.3656
   2    C       14.5710   44.8760   63.1050 C.2   1 UNL  0.2482
   3    O       15.6190   45.0190   63.7910 O.2   1 UNL -0.2696
   4    C       14.6170   44.0850   61.8510 C.ar  1 UNL  0.0397
   5    C       14.1720   44.6500   60.6600 C.ar  1 UNL -0.0494
   6    C       14.2230   43.8930   59.4930 C.ar  1 UNL -0.0608
   7    C       14.7080   42.5900   59.5060 C.ar  1 UNL -0.0528
   8    C       15.1480   42.0450   60.7080 C.ar  1 UNL  0.0011
   9    C       15.6560   40.6870   60.7330 C.ar  1 UNL  0.0757
  10    C       16.5170   40.2680   59.7240 C.ar  1 UNL  0.0072
  11    C       16.9990   38.9630   59.7570 C.ar  1 UNL  0.1338
  12    N       17.8650   38.5300   58.7450 N.pl3 1 UNL -0.3401
  13    C       17.7560   38.9280   57.3670 C.ar  1 UNL  0.0398
  14    C       18.9060   39.0390   56.5910 C.ar  1 UNL -0.0349
  15    C       18.8100   39.4230   55.2570 C.ar  1 UNL -0.0175
  16    C       17.5570   39.6930   54.7170 C.ar  1 UNL  0.1291
  17    O       17.4510   40.0680   53.4250 O.3   1 UNL -0.4058
  18    C       17.5160   39.1880   52.3040 C.3   1 UNL  0.5726
  19    F       16.5080   38.2440   52.3790 F     1 UNL -0.1323
  20    F       18.7480   38.5600   52.2620 F     1 UNL -0.1323
  21    F       17.3520   39.9240   51.1470 F     1 UNL -0.1323
  22    C       16.4020   39.5860   55.4860 C.ar  1 UNL -0.0175
  23    C       16.5070   39.2010   56.8180 C.ar  1 UNL -0.0349
  24    N       16.6210   38.1520   60.7570 N.ar  1 UNL -0.2193
  25    C       15.7910   38.5700   61.7240 C.ar  1 UNL  0.1180
  26    N       15.3180   39.8260   61.7040 N.ar  1 UNL -0.2362
  27    C       15.1060   42.7840   61.8860 C.ar  1 UNL -0.0400
  28    H       12.4968   45.3935   63.0081 H     1 UNL  0.1595
  29    H       13.3619   46.0505   64.4233 H     1 UNL  0.1595
  30    H       13.7856   45.6797   60.6409 H     1 UNL  0.0631
  31    H       13.8745   44.3321   58.5466 H     1 UNL  0.0623
  32    H       14.7433   41.9986   58.5792 H     1 UNL  0.0630
  33    H       16.8109   40.9544   58.9163 H     1 UNL  0.0685
  34    H       18.6269   37.8869   59.0034 H     1 UNL  0.1681
  35    H       19.8904   38.8233   57.0320 H     1 UNL  0.0646
  36    H       19.7142   39.5120   54.6370 H     1 UNL  0.0663
  37    H       15.4178   39.8034   55.0454 H     1 UNL  0.0663
  38    H       15.6025   39.1123   57.4377 H     1 UNL  0.0646
  39    H       15.4982   37.8842   62.5327 H     1 UNL  0.1064
  40    H       15.4550   42.3449   62.8323 H     1 UNL  0.0638
@<TRIPOS>BOND
    1     2     1 am
    2     3     2  2
    3     4     2  1
    4     5     4 ar
    5     6     5 ar
    6     7     6 ar
    7     8     7 ar
    8     9     8  1
    9    10     9 ar
   10    11    10 ar
   11    12    11  1
   12    13    12  1
   13    14    13 ar
   14    15    14 ar
   15    16    15 ar
   16    17    16  1
   17    18    17  1
   18    19    18  1
   19    20    18  1
   20    21    18  1
   21    22    16 ar
   22    23    22 ar
   23    23    13 ar
   24    24    11 ar
   25    25    24 ar
   26    26    25 ar
   27    26     9 ar
   28    27     8 ar
   29    27     4 ar
   30     1    28  1
   31     1    29  1
   32     5    30  1
   33     6    31  1
   34     7    32  1
   35    10    33  1
   36    12    34  1
   37    14    35  1
   38    15    36  1
   39    22    37  1
   40    23    38  1
   41    25    39  1
   42    27    40  1