@<TRIPOS>MOLECULE
UNK
20 20 0 0 0
SMALL
GASTEIGER

@<TRIPOS>ATOM
   1    C        1.6800   59.5480   34.3950 C.3   1 UNL  0.0810
   2    O        0.5050   60.3040   34.6600 O.3   1 UNL -0.4654
   3    C       -0.1940   60.9880   33.6600 C.2   1 UNL  0.3395
   4    O        0.2650   62.0670   33.1930 O.2   1 UNL -0.2461
   5    C       -1.4170   60.4310   33.1150 C.ar  1 UNL  0.0826
   6    C       -1.9030   60.9390   31.9140 C.ar  1 UNL -0.0441
   7    C       -3.0730   60.4270   31.3650 C.ar  1 UNL -0.0425
   8    C       -3.7500   59.4070   32.0260 C.ar  1 UNL  0.0426
   9   Cl       -5.2490   58.7470   31.3270 Cl    1 UNL -0.0843
  10    C       -3.2710   58.8940   33.2270 C.ar  1 UNL -0.0196
  11    C       -2.0990   59.4110   33.7710 C.ar  1 UNL  0.0476
  12    N       -1.6310   58.8830   34.9810 N.2   1 UNL -0.3980
  13    H        2.1455   59.2485   35.3456 H     1 UNL  0.0670
  14    H        1.4157   58.6500   33.8172 H     1 UNL  0.0670
  15    H        2.3877   60.1607   33.8172 H     1 UNL  0.0670
  16    H       -1.3612   61.7459   31.3990 H     1 UNL  0.0633
  17    H       -3.4604   60.8251   30.4156 H     1 UNL  0.0639
  18    H       -3.8134   58.0873   33.7419 H     1 UNL  0.0661
  19    H       -0.7658   59.2499   35.4026 H     1 UNL  0.1562
  20    H       -2.1521   58.1279   35.4492 H     1 UNL  0.1562
@<TRIPOS>BOND
    1     2     1  1
    2     3     2  1
    3     4     3  2
    4     5     3  1
    5     6     5 ar
    6     7     6 ar
    7     8     7 ar
    8     9     8  1
    9    10     8 ar
   10    11    10 ar
   11    11     5 ar
   12    12    11  1
   13     1    13  1
   14     1    14  1
   15     1    15  1
   16     6    16  1
   17     7    17  1
   18    10    18  1
   19    12    19  1
   20    12    20  1