@<TRIPOS>MOLECULE
UNK
54 58 0 0 0
SMALL
GASTEIGER

@<TRIPOS>ATOM
   1    C       36.7060  -12.4860  -19.7050 C.3   1 UNL -0.0392
   2    C       36.0650  -11.4670  -18.7770 C.ar  1 UNL -0.0430
   3    C       36.0490  -11.7140  -17.4090 C.ar  1 UNL -0.0566
   4    C       35.4670  -10.7940  -16.5420 C.ar  1 UNL -0.0361
   5    C       34.8960   -9.6190  -17.0220 C.ar  1 UNL  0.0656
   6    N       34.2750   -8.5710  -16.3950 N.ar  1 UNL -0.2778
   7    N       33.8960   -7.6920  -17.2970 N.ar  1 UNL -0.1830
   8    C       34.2520   -8.1250  -18.4900 C.ar  1 UNL  0.0572
   9    C       34.9090   -9.3810  -18.3720 C.ar  1 UNL  0.0271
  10    C       35.4910  -10.2900  -19.2530 C.ar  1 UNL -0.0102
  11    C       35.5080  -10.0340  -20.6800 C.2   1 UNL -0.0372
  12    C       34.4200  -10.1890  -21.4430 C.2   1 UNL  0.0125
  13    N       34.4180   -9.9400  -22.8580 N.ar  1 UNL -0.2901
  14    C       33.3660  -10.1870  -23.6890 C.ar  1 UNL  0.1013
  15    N       33.7260   -9.8410  -24.9060 N.ar  1 UNL -0.2306
  16    C       35.0080   -9.3700  -24.8620 C.ar  1 UNL  0.1506
  17    C       35.9080   -8.8730  -25.7980 C.ar  1 UNL  0.1616
  18    N       35.5340   -8.7800  -27.1440 N.pl3 1 UNL -0.3383
  19    C       36.4030   -8.3050  -28.1870 C.ar  1 UNL  0.0396
  20    C       37.3310   -7.3090  -27.8990 C.ar  1 UNL -0.0378
  21    C       38.1790   -6.8410  -28.8970 C.ar  1 UNL -0.0495
  22    C       38.0840   -7.3790  -30.1760 C.ar  1 UNL  0.0113
  23    P       39.1500   -6.7960  -31.4500 P.3   1 UNL  0.1093
  24    C       39.0160   -4.9900  -31.5660 C.3   1 UNL -0.0070
  25    C       38.6650   -7.5380  -33.0340 C.3   1 UNL -0.0070
  26    O       40.5840   -7.1680  -31.1490 O.2   1 UNL -0.3192
  27    C       37.1570   -8.3750  -30.4670 C.ar  1 UNL -0.0495
  28    C       36.3110   -8.8420  -29.4670 C.ar  1 UNL -0.0378
  29    N       37.1370   -8.4790  -25.4310 N.ar  1 UNL -0.2168
  30    C       37.5440   -8.5480  -24.1560 C.ar  1 UNL  0.1200
  31    N       36.6990   -9.0230  -23.2310 N.ar  1 UNL -0.2162
  32    C       35.4640   -9.4230  -23.5680 C.ar  1 UNL  0.1690
  33    H       37.1978  -13.2678  -19.1075 H     1 UNL  0.0280
  34    H       35.9318  -12.9421  -20.3395 H     1 UNL  0.0280
  35    H       37.4523  -11.9856  -20.3395 H     1 UNL  0.0280
  36    H       36.4965  -12.6370  -17.0117 H     1 UNL  0.0627
  37    H       35.4581  -10.9985  -15.4612 H     1 UNL  0.0646
  38    H       34.1283   -8.4852  -15.3791 H     1 UNL  0.1901
  39    H       34.0684   -7.5942  -19.4358 H     1 UNL  0.0867
  40    H       36.4453   -9.7018  -21.1503 H     1 UNL  0.0645
  41    H       33.4862  -10.5216  -20.9662 H     1 UNL  0.0823
  42    H       32.3906  -10.6015  -23.3946 H     1 UNL  0.1048
  43    H       34.5798   -9.0689  -27.4027 H     1 UNL  0.1681
  44    H       37.3938   -6.8922  -26.8830 H     1 UNL  0.0645
  45    H       38.9161   -6.0546  -28.6774 H     1 UNL  0.0631
  46    H       38.9840   -4.5590  -30.5545 H     1 UNL  0.0313
  47    H       39.8871   -4.5917  -32.1069 H     1 UNL  0.0313
  48    H       38.0957   -4.7246  -32.1069 H     1 UNL  0.0313
  49    H       38.0719   -8.4454  -32.8475 H     1 UNL  0.0313
  50    H       38.0628   -6.8177  -33.6072 H     1 UNL  0.0313
  51    H       39.5664   -7.8005  -33.6072 H     1 UNL  0.0313
  52    H       37.0936   -8.7910  -31.4833 H     1 UNL  0.0631
  53    H       35.5751   -9.6296  -29.6863 H     1 UNL  0.0645
  54    H       38.5553   -8.2200  -23.8735 H     1 UNL  0.1064
@<TRIPOS>BOND
    1     2     1  1
    2     3     2 ar
    3     4     3 ar
    4     5     4 ar
    5     6     5 ar
    6     7     6 ar
    7     8     7 ar
    8     9     8 ar
    9     9     5 ar
   10    10     2 ar
   11    10     9 ar
   12    11    10  1
   13    12    11  2
   14    13    12  1
   15    14    13 ar
   16    15    14 ar
   17    16    15 ar
   18    17    16 ar
   19    18    17  1
   20    19    18  1
   21    20    19 ar
   22    21    20 ar
   23    22    21 ar
   24    23    22  1
   25    24    23  1
   26    25    23  1
   27    26    23  2
   28    27    22 ar
   29    28    27 ar
   30    28    19 ar
   31    29    17 ar
   32    30    29 ar
   33    31    30 ar
   34    32    31 ar
   35    32    16 ar
   36    32    13 ar
   37     1    33  1
   38     1    34  1
   39     1    35  1
   40     3    36  1
   41     4    37  1
   42     6    38  1
   43     8    39  1
   44    11    40  1
   45    12    41  1
   46    14    42  1
   47    18    43  1
   48    20    44  1
   49    21    45  1
   50    24    46  1
   51    24    47  1
   52    24    48  1
   53    25    49  1
   54    25    50  1
   55    25    51  1
   56    27    52  1
   57    28    53  1
   58    30    54  1