@<TRIPOS>MOLECULE
1JCQ_739
73 73 0 0 0
SMALL
GASTEIGER

@<TRIPOS>ATOM
   1    C       19.9053  131.6163    2.0724 C.3   1 UNL -0.1175
   2    S       18.8484  132.8499    2.9099 S.3   1 UNL -0.7867
   3    C       20.5000  133.2253    0.3182 C.3   1 UNL  0.1263
   4    N       21.8257  133.0953    2.3534 N.4   1 UNL -0.3521
   5    C       21.0688  132.2877    1.3628 C.3   1 UNL  0.1119
   6    N       21.0761  133.1313   -0.9580 N.4   1 UNL -0.3368
   7    C       20.2778  133.7383   -1.9941 C.3   1 UNL  0.1123
   8    C       21.3097  134.4273   -2.9815 C.3   1 UNL  0.0101
   9    C       22.0532  133.4181   -3.8408 C.3   1 UNL -0.0568
  10    C       20.6062  135.4580   -3.8779 C.3   1 UNL -0.0478
  11    C       21.4867  136.0188   -4.9741 C.3   1 UNL -0.0649
  12    C       19.4091  132.6408   -2.6415 C.3   1 UNL  0.0998
  13    O       18.5591  133.1147   -3.7629 O.3   1 UNL -0.3619
  14    C       17.8494  132.0167   -4.3602 C.3   1 UNL  0.1401
  15    C       16.5632  131.7695   -3.5344 C.3   1 UNL  0.0077
  16    C       15.5949  132.9016   -3.7385 C.ar  1 UNL -0.0449
  17    C       14.4734  132.7180   -4.5389 C.ar  1 UNL -0.0589
  18    C       15.8170  134.1378   -3.1617 C.ar  1 UNL -0.0589
  19    C       13.5632  133.7576   -4.7610 C.ar  1 UNL -0.0620
  20    C       14.9178  135.2002   -3.3873 C.ar  1 UNL -0.0620
  21    C       13.7759  135.0038   -4.1979 C.ar  1 UNL -0.0622
  22    C       17.4421  132.4573   -5.7750 C.2   1 UNL  0.2495
  23    O       16.9590  131.6542   -6.5570 O.2   1 UNL -0.2721
  24    N       17.5579  133.7441   -6.0740 N.am  1 UNL -0.3458
  25    C       17.1348  134.2275   -7.3929 C.3   1 UNL  0.0696
  26    C       15.6373  134.5981   -7.3890 C.3   1 UNL -0.0133
  27    C       15.2419  135.2503   -8.6852 C.3   1 UNL  0.0522
  28    S       13.7734  136.1085   -8.6352 S.o2  1 UNL  0.1471
  29    O       13.6965  136.9358   -7.3438 O.2   1 UNL -0.2291
  30    O       12.4610  135.1166   -8.8740 O.2   1 UNL -0.2291
  31    C       13.9293  137.3076   -9.8711 C.3   1 UNL  0.0388
  32    C       17.9479  135.4717   -7.7386 C.2   1 UNL  0.0639
  33    O       18.1663  135.7502   -8.9477 O.co2 1 UNL -0.5479
  34    O       18.3665  136.1516   -6.7791 O.co2 1 UNL -0.5479
  35    H       20.2983  130.9122    2.8206 H     1 UNL  0.0049
  36    H       19.2983  131.0851    1.3245 H     1 UNL  0.0049
  37    H       19.4253  133.0120    0.2211 H     1 UNL  0.0987
  38    H       20.7207  134.2424    0.6742 H     1 UNL  0.0987
  39    H       21.5578  132.8094    3.3060 H     1 UNL  0.3444
  40    H       22.8357  132.9431    2.2206 H     1 UNL  0.3444
  41    H       21.6085  134.0933    2.2206 H     1 UNL  0.3444
  42    H       21.7267  131.5372    0.9003 H     1 UNL  0.1000
  43    H       21.9937  133.5988   -0.9370 H     1 UNL  0.3463
  44    H       21.1541  132.1292   -1.1828 H     1 UNL  0.3463
  45    H       19.5738  134.5050   -1.6383 H     1 UNL  0.0988
  46    H       22.0516  134.9396   -2.3513 H     1 UNL  0.0362
  47    H       22.5804  132.7025   -3.1927 H     1 UNL  0.0235
  48    H       21.3356  132.8779   -4.4758 H     1 UNL  0.0235
  49    H       22.7818  133.9434   -4.4758 H     1 UNL  0.0235
  50    H       19.7363  134.9739   -4.3458 H     1 UNL  0.0269
  51    H       20.3226  136.3023   -3.2324 H     1 UNL  0.0269
  52    H       22.3334  136.5581   -4.5244 H     1 UNL  0.0230
  53    H       21.8657  135.1954   -5.5972 H     1 UNL  0.0230
  54    H       20.9008  136.7105   -5.5972 H     1 UNL  0.0230
  55    H       20.0765  131.8544   -3.0239 H     1 UNL  0.0631
  56    H       18.7251  132.2792   -1.8596 H     1 UNL  0.0631
  57    H       18.4650  131.1056   -4.3891 H     1 UNL  0.0711
  58    H       16.0967  130.8281   -3.8600 H     1 UNL  0.0348
  59    H       16.8255  131.7068   -2.4680 H     1 UNL  0.0348
  60    H       14.2981  131.7378   -5.0062 H     1 UNL  0.0626
  61    H       16.6994  134.2936   -2.5236 H     1 UNL  0.0626
  62    H       12.6748  133.5835   -5.3859 H     1 UNL  0.0623
  63    H       15.1050  136.1838   -2.9318 H     1 UNL  0.0623
  64    H       13.0690  135.8272   -4.3778 H     1 UNL  0.0623
  65    H       17.9438  134.4023   -5.3821 H     1 UNL  0.1637
  66    H       17.2988  133.4309   -8.1335 H     1 UNL  0.0593
  67    H       15.0407  133.6846   -7.2489 H     1 UNL  0.0302
  68    H       15.4531  135.3072   -6.5685 H     1 UNL  0.0302
  69    H       16.0387  135.9525   -8.9717 H     1 UNL  0.0434
  70    H       15.0991  134.4354   -9.4102 H     1 UNL  0.0434
  71    H       14.0579  138.2970   -9.4079 H     1 UNL  0.0396
  72    H       14.8052  137.0785  -10.4958 H     1 UNL  0.0396
  73    H       13.0239  137.3101  -10.4958 H     1 UNL  0.0396
@<TRIPOS>BOND
    1     2     1  1
    2     5     3  1
    3     5     1  1
    4     5     4  1
    5     6     3  1
    6     7     6  1
    7     8     7  1
    8     8     9  1
    9    10     8  1
   10    11    10  1
   11     7    12  1
   12    13    12  1
   13    14    13  1
   14    14    15  1
   15    16    15  1
   16    17    16 ar
   17    18    16 ar
   18    19    17 ar
   19    20    18 ar
   20    21    20 ar
   21    21    19 ar
   22    22    14  1
   23    23    22  2
   24    24    22 am
   25    25    24  1
   26    25    26  1
   27    27    26  1
   28    28    27  1
   29    29    28  2
   30    30    28  2
   31    31    28  1
   32    32    25  1
   33    33    32  2
   34    34    32  1
   35     1    35  1
   36     1    36  1
   37     3    37  1
   38     3    38  1
   39     4    39  1
   40     4    40  1
   41     4    41  1
   42     5    42  1
   43     6    43  1
   44     6    44  1
   45     7    45  1
   46     8    46  1
   47     9    47  1
   48     9    48  1
   49     9    49  1
   50    10    50  1
   51    10    51  1
   52    11    52  1
   53    11    53  1
   54    11    54  1
   55    12    55  1
   56    12    56  1
   57    14    57  1
   58    15    58  1
   59    15    59  1
   60    17    60  1
   61    18    61  1
   62    19    62  1
   63    20    63  1
   64    21    64  1
   65    24    65  1
   66    25    66  1
   67    26    67  1
   68    26    68  1
   69    27    69  1
   70    27    70  1
   71    31    71  1
   72    31    72  1
   73    31    73  1