@<TRIPOS>MOLECULE
1LD7_U66
62 67 0 0 0
SMALL
GASTEIGER

@<TRIPOS>ATOM
   1    C       15.3487  134.7482   -3.6576 C.ar  1 UNL  0.0092
   2    C       15.7504  136.1084   -3.9255 C.ar  1 UNL  0.0518
   3    C       14.0105  134.2941   -3.9943 C.ar  1 UNL -0.0160
   4    C       16.2028  133.8026   -3.0679 C.ar  1 UNL -0.0100
   5    N       17.0795  136.5832   -3.6214 N.am  1 UNL -0.3064
   6    C       14.8014  136.9917   -4.5220 C.ar  1 UNL -0.0377
   7    C       13.6109  132.9409   -3.7344 C.ar  1 UNL -0.0506
   8    C       13.0994  135.2033   -4.5863 C.ar  1 UNL -0.0542
   9    C       15.8331  132.4486   -2.8076 C.ar  1 UNL  0.1200
  10    C       17.4961  137.2122   -2.4314 C.2   1 UNL  0.2848
  11    C       18.1906  136.4418   -4.5472 C.3   1 UNL  0.0323
  12    C       13.4896  136.5397   -4.8452 C.ar  1 UNL -0.0596
  13    C       14.5245  132.0147   -3.1466 C.ar  1 UNL -0.0193
  14    O       16.7381  131.4961   -2.2620 O.3   1 UNL -0.4887
  15    C       19.0325  137.3839   -2.4979 C.3   1 UNL  0.1675
  16    O       16.8125  137.4722   -1.4597 O.2   1 UNL -0.2675
  17    C       19.4006  136.4052   -3.6343 C.3   1 UNL  0.0269
  18    C       18.1339  131.7938   -2.3303 C.3   1 UNL  0.1185
  19    N       19.7057  137.0562   -1.2055 N.4   1 UNL -0.3356
  20    C       18.8997  131.9764   -3.5567 C.3   1 UNL  0.0869
  21    C       18.7949  131.9181   -1.0747 C.3   1 UNL  0.0084
  22    C       19.3987  135.7446   -0.5739 C.3   1 UNL  0.0817
  23    C       20.2802  132.2888   -3.4605 C.3   1 UNL -0.0151
  24    C       18.2807  131.8484   -4.8562 C.1   1 UNL  0.0698
  25    C       20.1937  132.2242   -1.0009 C.2   1 UNL -0.0507
  26    C       20.1818  135.5220    0.7075 C.3   1 UNL  0.0386
  27    C       20.9173  132.4137   -2.2024 C.2   1 UNL -0.0820
  28    N       17.7201  131.7408   -5.8656 N.1   1 UNL -0.1979
  29    C       20.9441  132.3564    0.3041 C.3   1 UNL  0.0448
  30    C       19.8460  134.3250    1.5420 C.ar  1 UNL  0.0432
  31    N       20.1717  132.9961    1.3657 N.ar  1 UNL -0.3303
  32    C       19.1109  134.3243    2.7029 C.ar  1 UNL  0.0483
  33    C       19.6250  132.2960    2.4150 C.ar  1 UNL  0.0951
  34    N       18.9682  133.0780    3.2519 N.ar  1 UNL -0.2449
  35    H       17.2173  134.1243   -2.7899 H     1 UNL  0.0669
  36    H       15.0859  138.0328   -4.7345 H     1 UNL  0.0645
  37    H       12.5921  132.6143   -3.9902 H     1 UNL  0.0631
  38    H       12.0840  134.8695   -4.8461 H     1 UNL  0.0629
  39    H       18.1053  135.5105   -5.1263 H     1 UNL  0.0501
  40    H       18.2367  137.2500   -5.2919 H     1 UNL  0.0501
  41    H       12.7714  137.2370   -5.3012 H     1 UNL  0.0624
  42    H       14.2176  130.9753   -2.9582 H     1 UNL  0.0662
  43    H       19.3584  138.4181   -2.6828 H     1 UNL  0.1070
  44    H       20.3029  136.7425   -4.1654 H     1 UNL  0.0352
  45    H       19.6274  135.3931   -3.2680 H     1 UNL  0.0352
  46    H       18.3625  130.7180   -2.3477 H     1 UNL  0.0760
  47    H       20.7216  137.0859   -1.3726 H     1 UNL  0.3465
  48    H       19.3428  137.7543   -0.5408 H     1 UNL  0.3465
  49    H       18.6564  133.0491   -3.5489 H     1 UNL  0.0503
  50    H       18.2717  132.7137   -0.5239 H     1 UNL  0.0352
  51    H       18.7515  130.8933   -0.6774 H     1 UNL  0.0352
  52    H       18.3240  135.7070   -0.3422 H     1 UNL  0.0927
  53    H       19.6858  134.9550   -1.2839 H     1 UNL  0.0927
  54    H       20.8175  131.4985   -4.0051 H     1 UNL  0.0325
  55    H       20.3220  133.3153   -3.8536 H     1 UNL  0.0325
  56    H       21.2433  135.4397    0.4311 H     1 UNL  0.0391
  57    H       19.9165  136.3804    1.3422 H     1 UNL  0.0391
  58    H       21.9882  132.6611   -2.1581 H     1 UNL  0.0577
  59    H       21.2314  131.3500    0.6425 H     1 UNL  0.0545
  60    H       21.8150  132.9996    0.1093 H     1 UNL  0.0545
  61    H       18.6802  135.2339    3.1468 H     1 UNL  0.0860
  62    H       19.7236  131.2079    2.5428 H     1 UNL  0.1043
@<TRIPOS>BOND
    1     2     1 ar
    2     3     1 ar
    3     4     1 ar
    4     5     2  1
    5     6     2 ar
    6     7     3 ar
    7     8     3 ar
    8     9     4 ar
    9    10     5 am
   10    11     5  1
   11    12     8 ar
   12    12     6 ar
   13    13     9 ar
   14    13     7 ar
   15    14     9  1
   16    15    10  1
   17    16    10  2
   18    15    17  1
   19    17    11  1
   20    18    14  1
   21    19    15  1
   22    20    18  1
   23    21    18  1
   24    22    19  1
   25    23    20  1
   26    24    20  1
   27    25    21  1
   28    26    22  1
   29    27    25  2
   30    27    23  1
   31    28    24  3
   32    29    25  1
   33    30    26  1
   34    31    30 ar
   35    31    29  1
   36    32    30 ar
   37    33    31 ar
   38    34    33 ar
   39    34    32 ar
   40     4    35  1
   41     6    36  1
   42     7    37  1
   43     8    38  1
   44    11    39  1
   45    11    40  1
   46    12    41  1
   47    13    42  1
   48    15    43  1
   49    17    44  1
   50    17    45  1
   51    18    46  1
   52    19    47  1
   53    19    48  1
   54    20    49  1
   55    21    50  1
   56    21    51  1
   57    22    52  1
   58    22    53  1
   59    23    54  1
   60    23    55  1
   61    26    56  1
   62    26    57  1
   63    27    58  1
   64    29    59  1
   65    29    60  1
   66    32    61  1
   67    33    62  1