@<TRIPOS>MOLECULE
1LD8_FPP
49 48 0 0 0
SMALL
GASTEIGER

@<TRIPOS>ATOM
   1    C       24.7228  130.7583   -1.1033 C.3   1 UNL  0.0736
   2    O       24.4886  131.9601   -0.3793 O.3   1 UNL -0.3141
   3    C       23.4194  130.1183   -1.5384 C.2   1 UNL -0.0595
   4    C       23.0205  129.9775   -2.8374 C.2   1 UNL -0.0747
   5    C       23.8468  130.4492   -4.0095 C.3   1 UNL -0.0438
   6    C       21.7149  129.3337   -3.2612 C.3   1 UNL -0.0287
   7    C       20.8528  128.7348   -2.1416 C.3   1 UNL -0.0311
   8    C       19.4719  128.3712   -2.6324 C.2   1 UNL -0.0853
   9    C       18.3627  128.2890   -1.8563 C.2   1 UNL -0.0770
  10    C       18.3529  128.5510   -0.3688 C.3   1 UNL -0.0439
  11    C       17.0097  127.9165   -2.4135 C.3   1 UNL -0.0288
  12    C       16.9461  127.7491   -3.9286 C.3   1 UNL -0.0311
  13    C       15.5705  127.2963   -4.3695 C.2   1 UNL -0.0856
  14    C       14.7046  128.0225   -5.1103 C.2   1 UNL -0.0804
  15    C       14.9827  129.4142   -5.6125 C.3   1 UNL -0.0442
  16    C       13.3545  127.4969   -5.5057 C.3   1 UNL -0.0442
  17    P       25.0857  132.0563    1.0971 P.3   1 UNL  0.2716
  18    O       26.5812  131.9749    1.1446 O.2   1 UNL -0.2760
  19    O       24.5512  133.3770    1.6701 O.2   1 UNL -0.7559
  20    O       24.3986  130.9231    1.9703 O.3   1 UNL -0.2868
  21    P       25.0008  129.9937    3.1005 P.3   1 UNL  0.0693
  22    O       26.1444  130.6299    3.8355 O.2   1 UNL -0.3255
  23    O       25.3971  128.7000    2.3516 O.2   1 UNL -0.7895
  24    O       23.7955  129.6918    4.0268 O.2   1 UNL -0.7895
  25    H       25.3251  130.9879   -1.9947 H     1 UNL  0.0617
  26    H       25.2549  130.0540   -0.4469 H     1 UNL  0.0617
  27    H       22.7478  129.7408   -0.7533 H     1 UNL  0.0600
  28    H       24.7468  130.9630   -3.6406 H     1 UNL  0.0276
  29    H       24.1431  129.5842   -4.6210 H     1 UNL  0.0276
  30    H       23.2526  131.1442   -4.6210 H     1 UNL  0.0276
  31    H       21.1141  130.1007   -3.7719 H     1 UNL  0.0316
  32    H       22.0021  128.4820   -3.8953 H     1 UNL  0.0316
  33    H       21.3450  127.8285   -1.7590 H     1 UNL  0.0313
  34    H       20.7467  129.4907   -1.3495 H     1 UNL  0.0313
  35    H       19.3563  128.1558   -3.7049 H     1 UNL  0.0575
  36    H       18.3887  127.5940    0.1723 H     1 UNL  0.0276
  37    H       19.2290  129.1585   -0.0977 H     1 UNL  0.0276
  38    H       17.4339  129.0913   -0.0977 H     1 UNL  0.0276
  39    H       16.7046  126.9646   -1.9544 H     1 UNL  0.0316
  40    H       16.3429  128.7581   -2.1747 H     1 UNL  0.0316
  41    H       17.1776  128.7124   -4.4065 H     1 UNL  0.0313
  42    H       17.6780  126.9840   -4.2266 H     1 UNL  0.0313
  43    H       15.2485  126.2908   -4.0606 H     1 UNL  0.0575
  44    H       15.1182  130.0924   -4.7571 H     1 UNL  0.0276
  45    H       15.8973  129.4075   -6.2237 H     1 UNL  0.0276
  46    H       14.1358  129.7595   -6.2237 H     1 UNL  0.0276
  47    H       12.7704  127.2695   -4.6017 H     1 UNL  0.0276
  48    H       12.8263  128.2551   -6.1025 H     1 UNL  0.0276
  49    H       13.4779  126.5811   -6.1025 H     1 UNL  0.0276
@<TRIPOS>BOND
    1     2     1  1
    2     3     1  1
    3     4     3  2
    4     5     4  1
    5     6     4  1
    6     7     6  1
    7     8     7  1
    8     9     8  2
    9    10     9  1
   10    11     9  1
   11    12    11  1
   12    13    12  1
   13    14    13  2
   14    15    14  1
   15    16    14  1
   16    17     2  1
   17    18    17  2
   18    17    19  1
   19    20    17  1
   20    21    20  1
   21    22    21  2
   22    23    21  1
   23    24    21  1
   24     1    25  1
   25     1    26  1
   26     3    27  1
   27     5    28  1
   28     5    29  1
   29     5    30  1
   30     6    31  1
   31     6    32  1
   32     7    33  1
   33     7    34  1
   34     8    35  1
   35    10    36  1
   36    10    37  1
   37    10    38  1
   38    11    39  1
   39    11    40  1
   40    12    41  1
   41    12    42  1
   42    13    43  1
   43    15    44  1
   44    15    45  1
   45    15    46  1
   46    16    47  1
   47    16    48  1
   48    16    49  1