@<TRIPOS>MOLECULE
1MZC_BNE
69 72 0 0 0
SMALL
GASTEIGER

@<TRIPOS>ATOM
   1    C       14.6444  135.5634   -4.4997 C.3   1 UNL  0.0741
   2    C       14.4420  134.0767   -3.9221 C.ar  1 UNL -0.0288
   3    C       16.1864  135.9491   -4.7968 C.2   1 UNL  0.2325
   4    C       13.7081  135.6924   -5.7964 C.3   1 UNL -0.0345
   5    C       14.1317  136.6466   -3.4573 C.3   1 UNL -0.0375
   6    C       15.5590  133.3445   -3.4486 C.ar  1 UNL -0.0150
   7    C       13.1654  133.4120   -3.8259 C.ar  1 UNL -0.0577
   8    N       16.9247  135.3032   -5.8355 N.am  1 UNL -0.3450
   9    O       16.7449  136.8267   -4.1050 O.2   1 UNL -0.2739
  10    C       13.9209  134.7175   -6.9782 C.3   1 UNL -0.0503
  11    C       14.5872  136.4788   -1.9912 C.3   1 UNL -0.0640
  12    C       15.4716  132.0237   -2.9020 C.ar  1 UNL  0.1273
  13    C       13.0567  132.0901   -3.2857 C.ar  1 UNL -0.0583
  14    C       16.4329  134.2894   -6.7771 C.3   1 UNL  0.0201
  15    C       18.3239  135.6820   -6.0505 C.3   1 UNL  0.0092
  16    C       15.2941  134.8103   -7.6462 C.3   1 UNL -0.0354
  17    O       16.6474  131.3569   -2.4475 O.3   1 UNL -0.4560
  18    C       14.2078  131.3950   -2.8243 C.ar  1 UNL -0.0193
  19    C       17.8470  132.1037   -2.4680 C.ar  1 UNL  0.1452
  20    C       18.6841  132.2243   -3.6296 C.ar  1 UNL  0.0947
  21    C       18.2134  132.7727   -1.2663 C.ar  1 UNL -0.0080
  22    C       19.8668  133.0015   -3.5584 C.ar  1 UNL -0.0400
  23    C       18.3146  131.6558   -4.8917 C.1   1 UNL  0.1031
  24    C       19.3991  133.5701   -1.1802 C.ar  1 UNL  0.0220
  25    C       20.2200  133.6663   -2.3553 C.ar  1 UNL -0.0508
  26    N       17.9575  131.2253   -5.9010 N.1   1 UNL -0.1923
  27    C       19.8027  134.3047    0.1267 C.3   1 UNL  0.1597
  28    C       19.5976  133.4632    1.3865 C.ar  1 UNL  0.1028
  29    C       19.0004  135.6379    0.2854 C.3   1 UNL  0.0010
  30    N       21.2326  134.6239    0.0739 N.4   1 UNL -0.3441
  31    N       20.0793  132.1820    1.5897 N.ar  1 UNL -0.3322
  32    C       18.9138  133.7415    2.5716 C.ar  1 UNL  0.0549
  33    C       19.6580  131.8120    2.8229 C.ar  1 UNL  0.0947
  34    C       20.8735  131.2870    0.7612 C.3   1 UNL  0.0126
  35    N       18.9509  132.7128    3.4707 N.ar  1 UNL -0.2447
  36    H       12.6694  135.5652   -5.4573 H     1 UNL  0.0281
  37    H       13.9733  136.6744   -6.2151 H     1 UNL  0.0281
  38    H       14.4807  137.6309   -3.8027 H     1 UNL  0.0278
  39    H       13.0387  136.5248   -3.4328 H     1 UNL  0.0278
  40    H       16.5504  133.8179   -3.5041 H     1 UNL  0.0665
  41    H       12.2593  133.9297   -4.1736 H     1 UNL  0.0626
  42    H       13.7912  133.6915   -6.6032 H     1 UNL  0.0268
  43    H       13.1834  134.9951   -7.7457 H     1 UNL  0.0268
  44    H       13.7715  136.7793   -1.3171 H     1 UNL  0.0231
  45    H       14.8468  135.4260   -1.8061 H     1 UNL  0.0231
  46    H       15.4677  137.1116   -1.8061 H     1 UNL  0.0231
  47    H       12.0704  131.6066   -3.2271 H     1 UNL  0.0624
  48    H       17.2629  133.9805   -7.4296 H     1 UNL  0.0494
  49    H       16.0474  133.4434   -6.1892 H     1 UNL  0.0494
  50    H       18.8209  135.8165   -5.0784 H     1 UNL  0.0457
  51    H       18.8353  134.8900   -6.6172 H     1 UNL  0.0457
  52    H       18.3659  136.6238   -6.6172 H     1 UNL  0.0457
  53    H       15.2690  134.2222   -8.5755 H     1 UNL  0.0285
  54    H       15.4913  135.8767   -7.8306 H     1 UNL  0.0285
  55    H       14.1161  130.3795   -2.4115 H     1 UNL  0.0662
  56    H       17.5686  132.6744   -0.3806 H     1 UNL  0.0668
  57    H       20.5159  133.0902   -4.4420 H     1 UNL  0.0638
  58    H       21.1407  134.2673   -2.3219 H     1 UNL  0.0629
  59    H       18.8666  135.8603    1.3543 H     1 UNL  0.0303
  60    H       19.5547  136.4586   -0.1933 H     1 UNL  0.0303
  61    H       18.0156  135.5324   -0.1933 H     1 UNL  0.0303
  62    H       21.6016  134.7063    1.0320 H     1 UNL  0.3451
  63    H       21.7336  133.8741   -0.4237 H     1 UNL  0.3451
  64    H       21.3672  135.5156   -0.4237 H     1 UNL  0.3451
  65    H       18.3969  134.6935    2.7625 H     1 UNL  0.0862
  66    H       19.8909  130.8267    3.2529 H     1 UNL  0.1043
  67    H       21.4654  130.6199    1.4051 H     1 UNL  0.0461
  68    H       20.2059  130.6862    0.1261 H     1 UNL  0.0461
  69    H       21.5495  131.8784    0.1261 H     1 UNL  0.0461
@<TRIPOS>BOND
    1     2     1  1
    2     3     1  1
    3     4     1  1
    4     1     5  1
    5     6     2 ar
    6     7     2 ar
    7     8     3 am
    8     9     3  2
    9    10     4  1
   10    11     5  1
   11    12     6 ar
   12    13     7 ar
   13    14     8  1
   14    15     8  1
   15    16    10  1
   16    16    14  1
   17    17    12  1
   18    18    13 ar
   19    18    12 ar
   20    19    17  1
   21    20    19 ar
   22    21    19 ar
   23    22    20 ar
   24    23    20  1
   25    24    21 ar
   26    25    24 ar
   27    25    22 ar
   28    26    23  3
   29    27    24  1
   30    28    27  1
   31    27    29  1
   32    30    27  1
   33    31    28 ar
   34    32    28 ar
   35    33    31 ar
   36    34    31  1
   37    35    33 ar
   38    35    32 ar
   39     4    36  1
   40     4    37  1
   41     5    38  1
   42     5    39  1
   43     6    40  1
   44     7    41  1
   45    10    42  1
   46    10    43  1
   47    11    44  1
   48    11    45  1
   49    11    46  1
   50    13    47  1
   51    14    48  1
   52    14    49  1
   53    15    50  1
   54    15    51  1
   55    15    52  1
   56    16    53  1
   57    16    54  1
   58    18    55  1
   59    21    56  1
   60    22    57  1
   61    25    58  1
   62    29    59  1
   63    29    60  1
   64    29    61  1
   65    30    62  1
   66    30    63  1
   67    30    64  1
   68    32    65  1
   69    33    66  1
   70    34    67  1
   71    34    68  1
   72    34    69  1