@<TRIPOS>MOLECULE
1S63_778
50 53 0 0 0
SMALL
GASTEIGER

@<TRIPOS>ATOM
   1    N       18.3753  135.3468   -0.1208 N.4   1 UNL -0.3206
   2    C       17.1492  136.0458    0.2742 C.3   1 UNL  0.0961
   3    C       19.5167  135.2650    0.7911 C.3   1 UNL  0.1201
   4    C       18.9192  135.8067   -1.4057 C.3   1 UNL  0.1576
   5    C       16.1684  135.4747   -0.7634 C.3   1 UNL  0.0753
   6    C       19.3950  133.9858    1.6159 C.ar  1 UNL  0.0927
   7    C       17.8621  135.6182   -2.5360 C.2   1 UNL  0.2819
   8    N       16.5179  135.4549   -2.1863 N.am  1 UNL -0.3018
   9    N       19.9879  132.8138    1.2413 N.ar  1 UNL -0.3254
  10    C       18.7153  133.8299    2.7689 C.ar  1 UNL  0.0539
  11    O       18.2154  135.6097   -3.6999 O.2   1 UNL -0.2679
  12    C       15.4995  135.2736   -3.0951 C.ar  1 UNL  0.0456
  13    C       20.8230  132.5512    0.0451 C.3   1 UNL  0.0490
  14    C       19.7075  131.8851    2.1351 C.ar  1 UNL  0.0953
  15    N       18.9136  132.4530    3.1232 N.ar  1 UNL -0.2447
  16    C       14.9963  133.9824   -3.1430 C.ar  1 UNL -0.0196
  17    C       14.9448  136.2875   -3.9511 C.ar  1 UNL -0.0382
  18    C       20.0207  132.3671   -1.2511 C.ar  1 UNL -0.0281
  19    C       13.9568  133.6335   -4.0054 C.ar  1 UNL  0.0426
  20    C       13.8954  135.9400   -4.8325 C.ar  1 UNL -0.0587
  21    C       20.5834  132.7223   -2.4987 C.ar  1 UNL -0.0559
  22    C       18.7200  131.8450   -1.2350 C.ar  1 UNL -0.0559
  23    C       13.4009  134.6107   -4.8568 C.ar  1 UNL -0.0434
  24   Cl       13.4033  131.9996   -3.9692 Cl    1 UNL -0.0843
  25    C       19.8594  132.5489   -3.7008 C.ar  1 UNL -0.0441
  26    C       18.0019  131.6732   -2.4232 C.ar  1 UNL -0.0441
  27    C       18.5786  132.0270   -3.6656 C.ar  1 UNL  0.0520
  28    C       17.8972  131.8504   -4.7922 C.1   1 UNL  0.0991
  29    N       17.2977  131.6911   -5.7869 N.1   1 UNL -0.1924
  30    H       17.9707  134.3999   -0.1442 H     1 UNL  0.3484
  31    H       16.8487  135.7934    1.3018 H     1 UNL  0.0943
  32    H       17.2249  137.1431    0.2844 H     1 UNL  0.0943
  33    H       20.4519  135.2445    0.2123 H     1 UNL  0.0996
  34    H       19.5272  136.1403    1.4572 H     1 UNL  0.0996
  35    H       19.1826  136.8719   -1.3284 H     1 UNL  0.1032
  36    H       19.8142  135.2153   -1.6490 H     1 UNL  0.1032
  37    H       15.9738  134.4319   -0.4723 H     1 UNL  0.0558
  38    H       15.3282  136.1836   -0.7253 H     1 UNL  0.0558
  39    H       18.1372  134.5887    3.3167 H     1 UNL  0.0862
  40    H       21.5088  133.4005   -0.0907 H     1 UNL  0.0549
  41    H       21.3512  131.6039    0.2286 H     1 UNL  0.0549
  42    H       20.0451  130.8387    2.1033 H     1 UNL  0.1043
  43    H       15.4276  133.2140   -2.4845 H     1 UNL  0.0661
  44    H       15.3309  137.3171   -3.9205 H     1 UNL  0.0645
  45    H       13.4625  136.7003   -5.4993 H     1 UNL  0.0624
  46    H       21.6003  133.1401   -2.5347 H     1 UNL  0.0627
  47    H       18.2582  131.5669   -0.2762 H     1 UNL  0.0627
  48    H       12.5825  134.3417   -5.5408 H     1 UNL  0.0638
  49    H       20.3139  132.8286   -4.6627 H     1 UNL  0.0637
  50    H       16.9827  131.2605   -2.3913 H     1 UNL  0.0637
@<TRIPOS>BOND
    1     2     1  1
    2     3     1  1
    3     4     1  1
    4     5     2  1
    5     6     3  1
    6     7     4  1
    7     8     5  1
    8     8     7 am
    9     9     6 ar
   10    10     6 ar
   11    11     7  2
   12    12     8  1
   13    13     9  1
   14    14     9 ar
   15    15    14 ar
   16    15    10 ar
   17    16    12 ar
   18    17    12 ar
   19    18    13  1
   20    19    16 ar
   21    20    17 ar
   22    21    18 ar
   23    22    18 ar
   24    23    20 ar
   25    23    19 ar
   26    24    19  1
   27    25    21 ar
   28    26    22 ar
   29    27    26 ar
   30    27    25 ar
   31    28    27  1
   32    29    28  3
   33     1    30  1
   34     2    31  1
   35     2    32  1
   36     3    33  1
   37     3    34  1
   38     4    35  1
   39     4    36  1
   40     5    37  1
   41     5    38  1
   42    10    39  1
   43    13    40  1
   44    13    41  1
   45    14    42  1
   46    16    43  1
   47    17    44  1
   48    20    45  1
   49    21    46  1
   50    22    47  1
   51    23    48  1
   52    25    49  1
   53    26    50  1