@<TRIPOS>MOLECULE
1SA4_JAN
57 61 0 0 0
SMALL
GASTEIGER

@<TRIPOS>ATOM
   1    C       21.0662  132.0906    0.5194 C.3   1 UNL  0.0126
   2    N       20.0754  132.5160    1.5420 N.ar  1 UNL -0.3319
   3    C       19.8223  131.8712    2.6795 C.ar  1 UNL  0.0947
   4    N       18.8484  132.5638    3.3275 N.ar  1 UNL -0.2446
   5    C       18.5035  133.6369    2.5853 C.ar  1 UNL  0.0553
   6    C       19.2769  133.5659    1.5092 C.ar  1 UNL  0.1081
   7    C       19.1833  134.4801    0.3887 C.3   1 UNL  0.1882
   8    C       18.9757  133.8013   -0.8556 C.ar  1 UNL  0.0235
   9    C       18.1808  132.6281   -0.8990 C.ar  1 UNL -0.0505
  10    C       17.9205  131.9845   -2.1167 C.ar  1 UNL -0.0430
  11    C       18.4456  132.4963   -3.3106 C.ar  1 UNL  0.0406
  12   Cl       18.0642  131.6888   -4.8501 Cl    1 UNL -0.0843
  13    C       19.2436  133.6596   -3.2910 C.ar  1 UNL -0.0430
  14    C       19.5096  134.3119   -2.0661 C.ar  1 UNL -0.0505
  15    N       20.5195  135.1040    0.3004 N.4   1 UNL -0.3400
  16    C       18.2995  135.6031    0.6014 C.ar  1 UNL  0.0241
  17    C       17.1181  135.7778   -0.1763 C.ar  1 UNL -0.0420
  18    C       16.1468  136.7567    0.1716 C.ar  1 UNL  0.0068
  19    C       18.5083  136.4551    1.7155 C.ar  1 UNL -0.0498
  20    C       17.5542  137.4225    2.0676 C.ar  1 UNL -0.0371
  21    C       16.3694  137.5743    1.3151 C.ar  1 UNL  0.0515
  22    N       15.3613  138.5029    1.7295 N.ar  1 UNL -0.3113
  23    C       15.5712  139.3807    2.9174 C.3   1 UNL  0.0148
  24    C       14.1507  138.6034    1.0084 C.ar  1 UNL  0.2509
  25    O       13.2632  139.3657    1.3917 O.2   1 UNL -0.2694
  26    C       13.9434  137.8102   -0.1243 C.ar  1 UNL  0.0120
  27    C       14.9243  136.8947   -0.5648 C.ar  1 UNL -0.0035
  28    C       14.6941  136.2141   -1.7887 C.ar  1 UNL -0.0160
  29    C       14.6617  134.8016   -1.8544 C.ar  1 UNL -0.0356
  30    C       14.3742  134.1621   -3.0806 C.ar  1 UNL  0.0412
  31   Cl       14.3063  132.3961   -3.1682 Cl    1 UNL -0.0843
  32    C       14.1216  134.9191   -4.2400 C.ar  1 UNL -0.0435
  33    C       14.1534  136.3205   -4.1803 C.ar  1 UNL -0.0602
  34    C       14.4378  136.9649   -2.9631 C.ar  1 UNL -0.0543
  35    H       21.9664  131.7041    1.0196 H     1 UNL  0.0461
  36    H       20.6284  131.3011   -0.1092 H     1 UNL  0.0461
  37    H       21.3371  132.9517   -0.1092 H     1 UNL  0.0461
  38    H       20.3105  130.9497    3.0295 H     1 UNL  0.1043
  39    H       17.7483  134.4014    2.8203 H     1 UNL  0.0862
  40    H       17.7639  132.2186    0.0329 H     1 UNL  0.0629
  41    H       17.3021  131.0749   -2.1350 H     1 UNL  0.0639
  42    H       19.6584  134.0585   -4.2285 H     1 UNL  0.0639
  43    H       20.1326  135.2184   -2.0515 H     1 UNL  0.0629
  44    H       20.8826  135.2736    1.2492 H     1 UNL  0.3454
  45    H       21.1595  134.4747   -0.2048 H     1 UNL  0.3454
  46    H       20.4479  135.9987   -0.2048 H     1 UNL  0.3454
  47    H       16.9547  135.1446   -1.0608 H     1 UNL  0.0636
  48    H       19.4283  136.3568    2.3105 H     1 UNL  0.0629
  49    H       17.7316  138.0694    2.9394 H     1 UNL  0.0645
  50    H       15.4307  138.7933    3.8368 H     1 UNL  0.0462
  51    H       16.5923  139.7891    2.8957 H     1 UNL  0.0462
  52    H       14.8453  140.2069    2.8957 H     1 UNL  0.0462
  53    H       12.9997  137.9009   -0.6821 H     1 UNL  0.0688
  54    H       14.8598  134.2028   -0.9532 H     1 UNL  0.0645
  55    H       13.8997  134.4130   -5.1911 H     1 UNL  0.0638
  56    H       13.9561  136.9146   -5.0848 H     1 UNL  0.0623
  57    H       14.4616  138.0639   -2.9221 H     1 UNL  0.0629
@<TRIPOS>BOND
    1     2     1  1
    2     3     2 ar
    3     4     3 ar
    4     5     4 ar
    5     6     5 ar
    6     6     2 ar
    7     7     6  1
    8     8     7  1
    9     9     8 ar
   10    10     9 ar
   11    11    10 ar
   12    12    11  1
   13    13    11 ar
   14    14    13 ar
   15    14     8 ar
   16     7    15  1
   17    16     7  1
   18    17    16 ar
   19    18    17 ar
   20    19    16 ar
   21    20    19 ar
   22    21    18 ar
   23    21    20 ar
   24    22    21 ar
   25    23    22  1
   26    24    22 ar
   27    25    24  2
   28    26    24 ar
   29    27    26 ar
   30    27    18 ar
   31    28    27  1
   32    29    28 ar
   33    30    29 ar
   34    31    30  1
   35    32    30 ar
   36    33    32 ar
   37    34    33 ar
   38    34    28 ar
   39     1    35  1
   40     1    36  1
   41     1    37  1
   42     3    38  1
   43     5    39  1
   44     9    40  1
   45    10    41  1
   46    13    42  1
   47    14    43  1
   48    15    44  1
   49    15    45  1
   50    15    46  1
   51    17    47  1
   52    19    48  1
   53    20    49  1
   54    23    50  1
   55    23    51  1
   56    23    52  1
   57    26    53  1
   58    29    54  1
   59    32    55  1
   60    33    56  1
   61    34    57  1