@<TRIPOS>MOLECULE
2IEJ_S48
68 72 0 0 0
SMALL
GASTEIGER

@<TRIPOS>ATOM
   1    C       21.3683  136.4391   -5.1195 C.3   1 UNL  0.0122
   2    N       20.4596  135.3423   -4.6370 N.ar  1 UNL -0.3391
   3    C       19.1443  135.3886   -4.7817 C.ar  1 UNL  0.0436
   4    C       20.8111  134.2117   -4.0100 C.ar  1 UNL  0.0960
   5    N       19.6896  133.5133   -3.7549 N.ar  1 UNL -0.2238
   6    C       18.6998  134.2629   -4.2247 C.ar  1 UNL  0.1880
   7    S       17.0272  133.8757   -4.1878 S.3   1 UNL  0.2624
   8    O       16.8152  132.5556   -4.8854 O.2   1 UNL -0.2052
   9    O       16.2561  134.9776   -4.8808 O.2   1 UNL -0.2052
  10    N       16.3773  133.8204   -2.6874 N.3   1 UNL -0.1801
  11    C       16.2190  132.4325   -2.2053 C.3   1 UNL  0.1122
  12    C       14.7537  132.1501   -2.5828 C.2   1 UNL  0.3205
  13    O       14.0363  133.0730   -2.9834 O.2   1 UNL -0.2507
  14    O       14.2700  130.8936   -2.4981 O.3   1 UNL -0.4680
  15    C       12.8965  130.6652   -2.8271 C.3   1 UNL  0.0806
  16    C       16.7630  134.8842   -1.7532 C.3   1 UNL  0.0475
  17    C       17.7011  134.4578   -0.6297 C.3   1 UNL  0.0353
  18    C       15.4238  135.4306   -1.1832 C.3   1 UNL -0.0072
  19    C       15.6156  136.3798   -0.0045 C.ar  1 UNL -0.0223
  20    C       14.5604  137.2483    0.3198 C.ar  1 UNL -0.0490
  21    C       14.6520  138.1262    1.4251 C.ar  1 UNL -0.0180
  22    C       13.5950  139.0297    1.7335 C.ar  1 UNL -0.0184
  23    C       12.2487  138.7487    1.4730 C.ar  1 UNL -0.0544
  24    C       11.2374  139.6919    1.7564 C.ar  1 UNL -0.0617
  25    C       11.5802  140.9499    2.2776 C.ar  1 UNL -0.0622
  26    C       12.9192  141.2566    2.5117 C.ar  1 UNL -0.0617
  27    C       13.9156  140.3075    2.2376 C.ar  1 UNL -0.0544
  28    C       15.8509  138.1464    2.1471 C.ar  1 UNL -0.0523
  29    C       16.9152  137.2999    1.8059 C.ar  1 UNL -0.0378
  30    C       16.8046  136.4191    0.7165 C.ar  1 UNL  0.0403
  31    N       17.8809  135.5546    0.3353 N.2   1 UNL -0.3638
  32    C       19.2269  135.7385    0.9200 C.3   1 UNL  0.0598
  33    C       19.3042  134.9519    2.2402 C.ar  1 UNL  0.0565
  34    C       18.6767  133.7977    2.5317 C.ar  1 UNL  0.0499
  35    N       19.0020  133.4368    3.7712 N.ar  1 UNL -0.2449
  36    C       19.8251  134.3704    4.2745 C.ar  1 UNL  0.0946
  37    N       20.0052  135.2864    3.3238 N.ar  1 UNL -0.3361
  38    C       20.8903  136.5067    3.4644 C.3   1 UNL  0.0125
  39    H       21.8021  136.9628   -4.2549 H     1 UNL  0.0461
  40    H       22.1753  136.0054   -5.7283 H     1 UNL  0.0461
  41    H       20.7921  137.1514   -5.7283 H     1 UNL  0.0461
  42    H       18.5493  136.1822   -5.2573 H     1 UNL  0.0850
  43    H       21.8358  133.9079   -3.7497 H     1 UNL  0.1043
  44    H       16.9074  131.7460   -2.7200 H     1 UNL  0.0564
  45    H       16.4441  132.2972   -1.1371 H     1 UNL  0.0564
  46    H       12.3092  130.5675   -1.9021 H     1 UNL  0.0670
  47    H       12.5148  131.5122   -3.4161 H     1 UNL  0.0670
  48    H       12.8094  129.7402   -3.4161 H     1 UNL  0.0670
  49    H       17.3519  135.6400   -2.2935 H     1 UNL  0.0501
  50    H       17.2735  133.5865   -0.1120 H     1 UNL  0.0510
  51    H       18.6793  134.1996   -1.0615 H     1 UNL  0.0510
  52    H       14.8969  135.9698   -1.9842 H     1 UNL  0.0334
  53    H       14.8476  134.5678   -0.8179 H     1 UNL  0.0334
  54    H       13.6485  137.2457   -0.2954 H     1 UNL  0.0633
  55    H       11.9739  137.7757    1.0398 H     1 UNL  0.0629
  56    H       10.1827  139.4418    1.5693 H     1 UNL  0.0623
  57    H       10.7963  141.6889    2.4998 H     1 UNL  0.0623
  58    H       13.1952  142.2434    2.9117 H     1 UNL  0.0623
  59    H       14.9693  140.5654    2.4197 H     1 UNL  0.0629
  60    H       15.9599  138.8375    2.9959 H     1 UNL  0.0630
  61    H       17.8436  137.3254    2.3953 H     1 UNL  0.0645
  62    H       19.9885  135.3632    0.2206 H     1 UNL  0.0560
  63    H       19.4100  136.8065    1.1093 H     1 UNL  0.0560
  64    H       18.0063  133.2443    1.8577 H     1 UNL  0.0860
  65    H       20.2673  134.3777    5.2817 H     1 UNL  0.1043
  66    H       21.0481  136.7243    4.5311 H     1 UNL  0.0461
  67    H       21.8600  136.3139    2.9821 H     1 UNL  0.0461
  68    H       20.4059  137.3685    2.9821 H     1 UNL  0.0461
@<TRIPOS>BOND
    1     2     1  1
    2     3     2 ar
    3     4     2 ar
    4     5     4 ar
    5     6     5 ar
    6     6     3 ar
    7     7     6  1
    8     8     7  2
    9     9     7  2
   10    10     7  1
   11    11    10  1
   12    12    11  1
   13    13    12  2
   14    14    12  1
   15    15    14  1
   16    16    10  1
   17    17    16  1
   18    18    16  1
   19    19    18  1
   20    20    19 ar
   21    21    20 ar
   22    22    21  1
   23    23    22 ar
   24    24    23 ar
   25    25    24 ar
   26    26    25 ar
   27    27    26 ar
   28    27    22 ar
   29    28    21 ar
   30    29    28 ar
   31    30    19 ar
   32    30    29 ar
   33    31    17  1
   34    31    30  1
   35    32    31  1
   36    33    32  1
   37    34    33 ar
   38    35    34 ar
   39    36    35 ar
   40    37    36 ar
   41    37    33 ar
   42    38    37  1
   43     1    39  1
   44     1    40  1
   45     1    41  1
   46     3    42  1
   47     4    43  1
   48    11    44  1
   49    11    45  1
   50    15    46  1
   51    15    47  1
   52    15    48  1
   53    16    49  1
   54    17    50  1
   55    17    51  1
   56    18    52  1
   57    18    53  1
   58    20    54  1
   59    23    55  1
   60    24    56  1
   61    25    57  1
   62    26    58  1
   63    27    59  1
   64    28    60  1
   65    29    61  1
   66    32    62  1
   67    32    63  1
   68    34    64  1
   69    36    65  1
   70    38    66  1
   71    38    67  1
   72    38    68  1