@<TRIPOS>MOLECULE
2IEJ_FII
52 51 0 0 0
SMALL
GASTEIGER

@<TRIPOS>ATOM
   1    C       14.2792  129.5978   -6.6105 C.3   1 UNL -0.0442
   2    C       13.8724  128.3657   -5.8029 C.2   1 UNL -0.0804
   3    C       12.6106  127.6060   -6.1872 C.3   1 UNL -0.0442
   4    C       14.6467  127.9456   -4.7200 C.2   1 UNL -0.0856
   5    C       15.8125  128.5787   -4.2830 C.3   1 UNL -0.0311
   6    C       16.8505  127.5465   -3.9043 C.3   1 UNL -0.0288
   7    C       18.0459  128.1129   -3.1045 C.2   1 UNL -0.0770
   8    C       17.8385  128.7807   -1.7472 C.3   1 UNL -0.0439
   9    C       19.3279  127.9627   -3.6111 C.2   1 UNL -0.0853
  10    C       20.5389  128.3716   -3.0320 C.3   1 UNL -0.0311
  11    C       21.1565  129.4998   -3.8789 C.3   1 UNL -0.0287
  12    C       22.4951  130.0963   -3.3923 C.2   1 UNL -0.0746
  13    C       23.1432  131.1688   -4.2769 C.3   1 UNL -0.0438
  14    C       23.1506  129.7038   -2.2221 C.2   1 UNL -0.0574
  15    C       24.3614  130.2127   -1.6992 C.3   1 UNL  0.0931
  16    O       24.0197  131.2670   -0.7482 O.3   1 UNL -0.2695
  17    N       25.1157  131.9122   -0.3002 N.am  1 UNL -0.2343
  18    C       25.2986  132.2589    0.9578 C.2   1 UNL  0.2481
  19    O       26.2998  132.8578    1.3246 O.2   1 UNL -0.2724
  20    C       24.1976  131.9087    1.9683 C.3   1 UNL  0.0566
  21    P       24.8197  130.5647    3.0413 P.3   1 UNL -0.0578
  22    O       25.2911  129.4656    1.9540 O.2   1 UNL -0.3562
  23    O       26.1204  131.0746    3.8029 O.2   1 UNL -0.8104
  24    O       23.7316  130.1599    3.9765 O.2   1 UNL -0.8104
  25    H       14.5486  130.4138   -5.9238 H     1 UNL  0.0276
  26    H       15.1438  129.3516   -7.2445 H     1 UNL  0.0276
  27    H       13.4380  129.9148   -7.2445 H     1 UNL  0.0276
  28    H       12.0823  127.2879   -5.2763 H     1 UNL  0.0276
  29    H       11.9555  128.2600   -6.7815 H     1 UNL  0.0276
  30    H       12.8821  126.7211   -6.7815 H     1 UNL  0.0276
  31    H       14.3149  127.0518   -4.1714 H     1 UNL  0.0575
  32    H       16.2072  129.2130   -5.0904 H     1 UNL  0.0313
  33    H       15.5798  129.1966   -3.4032 H     1 UNL  0.0313
  34    H       16.3615  126.7739   -3.2928 H     1 UNL  0.0316
  35    H       17.2596  127.1500   -4.8453 H     1 UNL  0.0316
  36    H       18.0621  128.0606   -0.9463 H     1 UNL  0.0276
  37    H       18.5097  129.6477   -1.6587 H     1 UNL  0.0276
  38    H       16.7942  129.1149   -1.6587 H     1 UNL  0.0276
  39    H       19.4051  127.4613   -4.5871 H     1 UNL  0.0575
  40    H       20.3523  128.7387   -2.0120 H     1 UNL  0.0313
  41    H       21.2334  127.5195   -2.9931 H     1 UNL  0.0313
  42    H       21.3202  129.1018   -4.8912 H     1 UNL  0.0316
  43    H       20.4367  130.3291   -3.8142 H     1 UNL  0.0316
  44    H       23.6075  131.9371   -3.6411 H     1 UNL  0.0276
  45    H       23.9122  130.7047   -4.9120 H     1 UNL  0.0276
  46    H       22.3748  131.6337   -4.9120 H     1 UNL  0.0276
  47    H       22.6678  128.9053   -1.6396 H     1 UNL  0.0601
  48    H       24.9162  129.4117   -1.1887 H     1 UNL  0.0640
  49    H       24.9957  130.6090   -2.5058 H     1 UNL  0.0640
  50    H       25.8523  132.1476   -0.9805 H     1 UNL  0.1985
  51    H       23.9565  132.7917    2.5783 H     1 UNL  0.0425
  52    H       23.2862  131.5868    1.4432 H     1 UNL  0.0425
@<TRIPOS>BOND
    1     2     1  1
    2     3     2  1
    3     4     2  2
    4     5     4  1
    5     6     5  1
    6     7     6  1
    7     8     7  1
    8     9     7  2
    9    10     9  1
   10    11    10  1
   11    12    11  1
   12    13    12  1
   13    14    12  2
   14    15    14  1
   15    16    15  1
   16    17    16  1
   17    18    17 am
   18    19    18  2
   19    20    18  1
   20    21    20  1
   21    22    21  2
   22    23    21  1
   23    24    21  1
   24     1    25  1
   25     1    26  1
   26     1    27  1
   27     3    28  1
   28     3    29  1
   29     3    30  1
   30     4    31  1
   31     5    32  1
   32     5    33  1
   33     6    34  1
   34     6    35  1
   35     8    36  1
   36     8    37  1
   37     8    38  1
   38     9    39  1
   39    10    40  1
   40    10    41  1
   41    11    42  1
   42    11    43  1
   43    13    44  1
   44    13    45  1
   45    13    46  1
   46    14    47  1
   47    15    48  1
   48    15    49  1
   49    17    50  1
   50    20    51  1
   51    20    52  1