@<TRIPOS>MOLECULE
3E37_ED5
85 88 0 0 0
SMALL
GASTEIGER

@<TRIPOS>ATOM
   1    O       16.3594  -77.0210    8.4855 O.2   1 UNL -0.2243
   2    C       16.6701  -77.2447    7.3177 C.2   1 UNL  0.4098
   3    O       16.2062  -78.4610    6.7146 O.3   1 UNL -0.4437
   4    C       15.3213  -79.3829    7.3434 C.3   1 UNL  0.1057
   5    C       15.8490  -79.8940    8.6750 C.3   1 UNL -0.0253
   6    C       14.0244  -78.6532    7.6082 C.3   1 UNL -0.0253
   7    C       15.1731  -80.5618    6.3931 C.3   1 UNL -0.0253
   8    N       17.3958  -76.4869    6.6055 N.am  1 UNL -0.3082
   9    C       18.1639  -75.3824    7.1520 C.3   1 UNL  0.0241
  10    C       17.5241  -74.1120    6.6262 C.3   1 UNL -0.0311
  11    C       17.5185  -76.6399    5.1562 C.3   1 UNL  0.0241
  12    C       16.7568  -75.4265    4.6067 C.3   1 UNL -0.0311
  13    C       17.3409  -74.1000    5.1149 C.3   1 UNL -0.0241
  14    C       16.3576  -72.9516    4.9197 C.3   1 UNL  0.0168
  15    N       16.2635  -72.3246    3.5873 N.3   1 UNL -0.1958
  16    S       14.6893  -72.1176    3.1549 S.3   1 UNL  0.2429
  17    O       14.4369  -72.6442    1.7839 O.2   1 UNL -0.2069
  18    O       14.5332  -70.6386    3.1663 O.2   1 UNL -0.2069
  19    C       13.6031  -72.7095    4.2066 C.ar  1 UNL  0.0851
  20    C       13.0198  -71.8315    5.1228 C.ar  1 UNL -0.0418
  21    C       12.0940  -72.2793    6.0588 C.ar  1 UNL -0.0609
  22    C       11.7301  -73.6178    6.0892 C.ar  1 UNL -0.0619
  23    C       12.2981  -74.4956    5.1748 C.ar  1 UNL -0.0580
  24    C       13.2126  -74.0443    4.2322 C.ar  1 UNL -0.0310
  25    C       13.7909  -75.0295    3.2623 C.3   1 UNL -0.0384
  26    C       17.2370  -72.7442    2.5302 C.3   1 UNL  0.0315
  27    C       18.5670  -71.9977    2.7684 C.3   1 UNL  0.0321
  28    N       19.1867  -71.6545    1.4696 N.2   1 UNL -0.3643
  29    C       20.4984  -72.1174    1.2276 C.ar  1 UNL  0.0371
  30    C       21.0946  -71.8986   -0.0159 C.ar  1 UNL -0.0374
  31    C       22.3677  -72.3961   -0.2840 C.ar  1 UNL -0.0423
  32    C       21.1687  -72.8771    2.1884 C.ar  1 UNL -0.0374
  33    C       22.4411  -73.3674    1.9214 C.ar  1 UNL -0.0423
  34    C       23.0443  -73.1274    0.6936 C.ar  1 UNL  0.0521
  35    C       24.2184  -73.6128    0.4674 C.1   1 UNL  0.0991
  36    N       25.2647  -74.0920    0.2816 N.1   1 UNL -0.1924
  37    C       18.8899  -70.3655    0.9188 C.3   1 UNL  0.0598
  38    C       18.1042  -70.4353   -0.3546 C.ar  1 UNL  0.0565
  39    C       17.2449  -71.4891   -0.6135 C.ar  1 UNL  0.0499
  40    N       16.7514  -71.1797   -1.8376 N.ar  1 UNL -0.2449
  41    C       17.2830  -70.0000   -2.2730 C.ar  1 UNL  0.0946
  42    N       18.1342  -69.5348   -1.3428 N.ar  1 UNL -0.3361
  43    C       18.9269  -68.2798   -1.4180 C.3   1 UNL  0.0125
  44    H       15.3240  -79.3855    9.4970 H     1 UNL  0.0271
  45    H       15.6775  -80.9783    8.7456 H     1 UNL  0.0271
  46    H       16.9272  -79.6880    8.7456 H     1 UNL  0.0271
  47    H       13.8681  -78.5653    8.6935 H     1 UNL  0.0271
  48    H       14.0710  -77.6489    7.1619 H     1 UNL  0.0271
  49    H       13.1902  -79.2144    7.1619 H     1 UNL  0.0271
  50    H       15.0566  -81.4886    6.9740 H     1 UNL  0.0271
  51    H       14.2867  -80.4125    5.7591 H     1 UNL  0.0271
  52    H       16.0689  -80.6366    5.7591 H     1 UNL  0.0271
  53    H       18.1261  -75.4002    8.2512 H     1 UNL  0.0495
  54    H       19.2212  -75.4477    6.8556 H     1 UNL  0.0495
  55    H       16.5362  -74.0001    7.0968 H     1 UNL  0.0288
  56    H       18.2032  -73.2831    6.8746 H     1 UNL  0.0288
  57    H       18.5735  -76.6165    4.8455 H     1 UNL  0.0495
  58    H       17.1224  -77.5985    4.7898 H     1 UNL  0.0495
  59    H       16.8118  -75.4407    3.5082 H     1 UNL  0.0288
  60    H       15.7155  -75.4939    4.9547 H     1 UNL  0.0288
  61    H       18.2824  -73.9770    4.5596 H     1 UNL  0.0318
  62    H       15.3572  -73.3345    5.1699 H     1 UNL  0.0445
  63    H       16.7457  -72.1515    5.5672 H     1 UNL  0.0445
  64    H       13.2975  -70.7673    5.1037 H     1 UNL  0.0637
  65    H       11.6502  -71.5723    6.7751 H     1 UNL  0.0623
  66    H       11.0005  -73.9795    6.8286 H     1 UNL  0.0623
  67    H       12.0205  -75.5598    5.1975 H     1 UNL  0.0626
  68    H       14.2722  -75.8494    3.8156 H     1 UNL  0.0280
  69    H       12.9879  -75.4358    2.6297 H     1 UNL  0.0280
  70    H       14.5371  -74.5265    2.6297 H     1 UNL  0.0280
  71    H       17.4046  -73.8298    2.5893 H     1 UNL  0.0461
  72    H       16.8405  -72.5010    1.5334 H     1 UNL  0.0461
  73    H       18.3720  -71.0755    3.3354 H     1 UNL  0.0507
  74    H       19.2504  -72.6446    3.3381 H     1 UNL  0.0507
  75    H       20.5558  -71.3301   -0.7882 H     1 UNL  0.0645
  76    H       22.8377  -72.2135   -1.2616 H     1 UNL  0.0637
  77    H       20.6898  -73.0873    3.1561 H     1 UNL  0.0645
  78    H       22.9742  -73.9495    2.6875 H     1 UNL  0.0637
  79    H       18.3082  -69.7949    1.6578 H     1 UNL  0.0560
  80    H       19.8493  -69.8808    0.6851 H     1 UNL  0.0560
  81    H       17.0186  -72.3612    0.0175 H     1 UNL  0.0860
  82    H       17.0520  -69.5096   -3.2302 H     1 UNL  0.1043
  83    H       19.1505  -67.9258   -0.4008 H     1 UNL  0.0461
  84    H       19.8678  -68.4720   -1.9544 H     1 UNL  0.0461
  85    H       18.3491  -67.5127   -1.9544 H     1 UNL  0.0461
@<TRIPOS>BOND
    1     2     1  2
    2     3     2  1
    3     4     3  1
    4     5     4  1
    5     6     4  1
    6     7     4  1
    7     8     2 am
    8     9     8  1
    9    10     9  1
   10    11     8  1
   11    12    11  1
   12    13    12  1
   13    13    10  1
   14    14    13  1
   15    15    14  1
   16    16    15  1
   17    17    16  2
   18    18    16  2
   19    19    16  1
   20    20    19 ar
   21    21    20 ar
   22    22    21 ar
   23    23    22 ar
   24    24    23 ar
   25    24    19 ar
   26    25    24  1
   27    26    15  1
   28    27    26  1
   29    28    27  1
   30    29    28  1
   31    30    29 ar
   32    31    30 ar
   33    32    29 ar
   34    33    32 ar
   35    34    33 ar
   36    34    31 ar
   37    35    34  1
   38    36    35  3
   39    37    28  1
   40    38    37  1
   41    39    38 ar
   42    40    39 ar
   43    41    40 ar
   44    42    41 ar
   45    42    38 ar
   46    43    42  1
   47     5    44  1
   48     5    45  1
   49     5    46  1
   50     6    47  1
   51     6    48  1
   52     6    49  1
   53     7    50  1
   54     7    51  1
   55     7    52  1
   56     9    53  1
   57     9    54  1
   58    10    55  1
   59    10    56  1
   60    11    57  1
   61    11    58  1
   62    12    59  1
   63    12    60  1
   64    13    61  1
   65    14    62  1
   66    14    63  1
   67    20    64  1
   68    21    65  1
   69    22    66  1
   70    23    67  1
   71    25    68  1
   72    25    69  1
   73    25    70  1
   74    26    71  1
   75    26    72  1
   76    27    73  1
   77    27    74  1
   78    30    75  1
   79    31    76  1
   80    32    77  1
   81    33    78  1
   82    37    79  1
   83    37    80  1
   84    39    81  1
   85    41    82  1
   86    43    83  1
   87    43    84  1
   88    43    85  1