1JCQ_739_1
foHydescor03192112133D 1   1.00000     0.00000     0
Hydescorer 1.1.0 fol007
 72 72  0  0  0  0            999 V2000
   19.0953  137.4122    3.6131 C   0  0  0  0  0  0  0  0  0  0  0  0
   19.1647  136.9188    5.0592 C   0  0  0  0  0  0  0  0  0  0  0  0
   20.6158  136.6510    5.5387 C   0  0  2  0  0  0  0  0  0  0  0  0
   21.5793  137.7288    5.0037 C   0  0  0  0  0  0  0  0  0  0  0  0
   21.1421  135.2088    5.1927 C   0  0  2  0  0  0  0  0  0  0  0  0
   22.4607  135.2196    4.3797 C   0  0  0  0  0  0  0  0  0  0  0  0
   23.4068  134.3387    4.9567 O   0  0  0  0  0  0  0  0  0  0  0  0
   22.8079  133.0942    5.2775 C   0  0  2  0  0  0  0  0  0  0  0  0
   23.3497  132.5935    6.6301 C   0  0  0  0  0  0  0  0  0  0  0  0
   24.8367  132.8087    6.7855 C   0  0  0  0  0  0  0  0  0  0  0  0
   25.3029  134.0098    7.3088 C   0  0  0  0  0  0  0  0  0  0  0  0
   26.6733  134.2018    7.4489 C   0  0  0  0  0  0  0  0  0  0  0  0
   27.5663  133.2054    7.0707 C   0  0  0  0  0  0  0  0  0  0  0  0
   27.0907  132.0070    6.5477 C   0  0  0  0  0  0  0  0  0  0  0  0
   25.7220  131.8058    6.4038 C   0  0  0  0  0  0  0  0  0  0  0  0
   23.0703  132.0819    4.1884 C   0  0  0  0  0  0  0  0  0  0  0  0
   22.8822  130.8582    4.4271 O   0  0  0  0  0  0  0  0  0  0  0  0
   23.5607  132.5031    2.9055 N   0  0  0  0  0  0  0  0  0  0  0  0
   23.8631  131.5606    1.8275 C   0  0  1  0  0  0  0  0  0  0  0  0
   24.1037  132.3392    0.5225 C   0  0  0  0  0  0  0  0  0  0  0  0
   24.9391  131.5434   -0.4861 C   0  0  0  0  0  0  0  0  0  0  0  0
   25.8897  132.6417   -1.5239 S   0  0  0  0  0  0  0  0  0  0  0  0
   25.5252  134.3260   -1.0849 C   0  0  0  0  0  0  0  0  0  0  0  0
   27.3574  132.3844   -1.3281 O   0  0  0  0  0  0  0  0  0  0  0  0
   25.5311  132.4165   -2.9659 O   0  0  0  0  0  0  0  0  0  0  0  0
   25.0576  130.7290    2.2102 C   0  0  0  0  0  0  0  0  0  0  0  0
   25.2660  129.6154    1.6593 O   0  0  0  0  0  0  0  0  0  0  0  0
   25.9492  131.1961    3.1676 O   0  5  0  0  0  0  0  0  0  0  0  0
   20.1151  134.3761    4.5125 N   0  0  0  0  0  0  0  0  0  0  0  0
   20.4317  134.1467    3.0870 C   0  0  0  0  0  0  0  0  0  0  0  0
   19.6955  132.9202    2.4869 C   0  0  2  0  0  0  0  0  0  0  0  0
   20.2434  131.6574    3.0021 N   0  0  0  0  0  0  0  0  0  0  0  0
   19.6984  132.9436    0.9429 C   0  0  0  0  0  0  0  0  0  0  0  0
   18.8345  131.5327    0.2765 S   0  0  0  0  0  0  0  0  0  0  0  0
   18.1405  137.5676    3.3593 H   0  0  0  0  0  0  0  0  0  0  0  0
   19.6063  138.2675    3.5277 H   0  0  0  0  0  0  0  0  0  0  0  0
   19.4936  136.7240    3.0067 H   0  0  0  0  0  0  0  0  0  0  0  0
   18.6431  136.0687    5.1314 H   0  0  0  0  0  0  0  0  0  0  0  0
   18.7558  137.6122    5.6526 H   0  0  0  0  0  0  0  0  0  0  0  0
   20.6135  136.7299    6.5356 H   0  0  0  0  0  0  0  0  0  0  0  0
   22.5064  137.5359    5.3248 H   0  0  0  0  0  0  0  0  0  0  0  0
   21.5647  137.7224    4.0038 H   0  0  0  0  0  0  0  0  0  0  0  0
   21.2918  138.6273    5.3355 H   0  0  0  0  0  0  0  0  0  0  0  0
   21.3450  134.7605    6.0633 H   0  0  0  0  0  0  0  0  0  0  0  0
   22.8356  136.1466    4.3731 H   0  0  0  0  0  0  0  0  0  0  0  0
   22.2711  134.9300    3.4415 H   0  0  0  0  0  0  0  0  0  0  0  0
   21.8200  133.2268    5.3587 H   0  0  0  0  0  0  0  0  0  0  0  0
   23.1595  131.6147    6.7070 H   0  0  0  0  0  0  0  0  0  0  0  0
   22.8784  133.0834    7.3634 H   0  0  0  0  0  0  0  0  0  0  0  0
   24.6609  134.7266    7.5809 H   0  0  0  0  0  0  0  0  0  0  0  0
   27.0186  135.0621    7.8240 H   0  0  0  0  0  0  0  0  0  0  0  0
   28.5503  133.3500    7.1746 H   0  0  0  0  0  0  0  0  0  0  0  0
   27.7328  131.2905    6.2753 H   0  0  0  0  0  0  0  0  0  0  0  0
   25.3766  130.9457    6.0285 H   0  0  0  0  0  0  0  0  0  0  0  0
   23.7010  133.4797    2.7425 H   0  0  0  0  0  0  0  0  0  0  0  0
   23.0775  130.9550    1.7002 H   0  0  0  0  0  0  0  0  0  0  0  0
   24.5850  133.1886    0.7393 H   0  0  0  0  0  0  0  0  0  0  0  0
   23.2190  132.5538    0.1087 H   0  0  0  0  0  0  0  0  0  0  0  0
   24.3285  130.9967   -1.0592 H   0  0  0  0  0  0  0  0  0  0  0  0
   25.5623  130.9381    0.0090 H   0  0  0  0  0  0  0  0  0  0  0  0
   26.0563  134.9440   -1.6646 H   0  0  0  0  0  0  0  0  0  0  0  0
   24.5496  134.5012   -1.2169 H   0  0  0  0  0  0  0  0  0  0  0  0
   25.7648  134.4799   -0.1263 H   0  0  0  0  0  0  0  0  0  0  0  0
   20.0600  133.4916    4.9759 H   0  0  0  0  0  0  0  0  0  0  0  0
   21.4170  133.9998    3.0000 H   0  0  0  0  0  0  0  0  0  0  0  0
   20.1689  134.9602    2.5682 H   0  0  0  0  0  0  0  0  0  0  0  0
   18.7418  132.9725    2.7827 H   0  0  0  0  0  0  0  0  0  0  0  0
   19.5368  130.9505    2.9718 H   0  0  0  0  0  0  0  0  0  0  0  0
   21.0203  131.3766    2.4386 H   0  0  0  0  0  0  0  0  0  0  0  0
   20.6440  132.9306    0.6181 H   0  0  0  0  0  0  0  0  0  0  0  0
   19.2492  133.7798    0.6283 H   0  0  0  0  0  0  0  0  0  0  0  0
   19.2995  130.6935    0.5583 H   0  0  0  0  0  0  0  0  0  0  0  0
  1  2  1  0  0  0  0
  2  3  1  0  0  0  0
  3  4  1  0  0  0  0
  3  5  1  0  0  0  0
  5  6  1  0  0  0  0
  6  7  1  0  0  0  0
  7  8  1  0  0  0  0
  8  9  1  0  0  0  0
  9 10  1  0  0  0  0
 10 11  2  0  0  0  0
 11 12  1  0  0  0  0
 12 13  2  0  0  0  0
 13 14  1  0  0  0  0
 14 15  2  0  0  0  0
  8 16  1  0  0  0  0
 16 17  2  0  0  0  0
 16 18  1  0  0  0  0
 18 19  1  0  0  0  0
 19 20  1  0  0  0  0
 20 21  1  0  0  0  0
 21 22  1  0  0  0  0
 22 23  1  0  0  0  0
 22 24  2  0  0  0  0
 22 25  2  0  0  0  0
 19 26  1  0  0  0  0
 26 27  2  0  0  0  0
 26 28  1  0  0  0  0
  5 29  1  0  0  0  0
 29 30  1  0  0  0  0
 30 31  1  0  0  0  0
 31 32  1  0  0  0  0
 31 33  1  0  0  0  0
 33 34  1  0  0  0  0
 15 10  1  0  0  0  0
  1 35  1  0  0  0  0
  1 36  1  0  0  0  0
  1 37  1  0  0  0  0
  2 38  1  0  0  0  0
  2 39  1  0  0  0  0
  3 40  1  0  0  0  0
  4 41  1  0  0  0  0
  4 42  1  0  0  0  0
  4 43  1  0  0  0  0
  5 44  1  0  0  0  0
  6 45  1  0  0  0  0
  6 46  1  0  0  0  0
  8 47  1  0  0  0  0
  9 48  1  0  0  0  0
  9 49  1  0  0  0  0
 11 50  1  0  0  0  0
 12 51  1  0  0  0  0
 13 52  1  0  0  0  0
 14 53  1  0  0  0  0
 15 54  1  0  0  0  0
 18 55  1  0  0  0  0
 19 56  1  0  0  0  0
 20 57  1  0  0  0  0
 20 58  1  0  0  0  0
 21 59  1  0  0  0  0
 21 60  1  0  0  0  0
 23 61  1  0  0  0  0
 23 62  1  0  0  0  0
 23 63  1  0  0  0  0
 34 72  1  0  0  0  0
 29 64  1  0  0  0  0
 30 65  1  0  0  0  0
 30 66  1  0  0  0  0
 31 67  1  0  0  0  0
 33 71  1  0  0  0  0
 32 68  1  0  0  0  0
 32 69  1  0  0  0  0
 33 70  1  0  0  0  0
M  CHG  1  28  -1
M  END
> <BIOSOLVEIT.HYDE_ESTIMATED_AFFINITY_LOWER_BOUNDARY [nM]>
33141817.109748

> <BIOSOLVEIT.HYDE_ESTIMATED_AFFINITY_UPPER_BOUNDARY [nM]>
3292835479.783911

> <BIOSOLVEIT.HYDE_LIGAND_EFFICIENCY range: ++, +, 0, -, -->
--

> <BIOSOLVEIT.HYDE_LIGAND_LIPOPHILIC_EFFICIENCY range: ++, +, 0, -, -->
--

> <BIOSOLVEIT.INTER_CLASH range: red, yellow, green>
green

> <BIOSOLVEIT.INTRA_CLASH range: red, yellow, green>
green

> <BIOSOLVEIT.LOGP>
0.5759

> <BIOSOLVEIT.MOLECULAR WEIGHT>
516.698

> <BIOSOLVEIT.MOLECULE_CHECKSUM>
LTIuNzQ1NzE7MC4wODA3NTY=

> <BIOSOLVEIT.TORSION_QUALITY range: red, yellow, green, not rotatable>
red

> <BIOSOLVEIT.TPSA>
150.65

$$$$
1JCQ_739_2
foHydescor03192112133D 1   1.00000     0.00000     0
Hydescorer 1.1.0 fol007
 72 72  0  0  0  0            999 V2000
   18.5819  138.1537    5.5573 C   0  0  0  0  0  0  0  0  0  0  0  0
   19.5890  137.2506    6.2712 C   0  0  0  0  0  0  0  0  0  0  0  0
   20.9177  137.0868    5.4872 C   0  0  2  0  0  0  0  0  0  0  0  0
   20.8699  137.8628    4.1562 C   0  0  0  0  0  0  0  0  0  0  0  0
   21.3310  135.5875    5.2459 C   0  0  2  0  0  0  0  0  0  0  0  0
   22.4470  135.4260    4.1837 C   0  0  0  0  0  0  0  0  0  0  0  0
   23.3735  134.4333    4.5840 O   0  0  0  0  0  0  0  0  0  0  0  0
   22.7059  133.2355    4.9445 C   0  0  2  0  0  0  0  0  0  0  0  0
   23.1439  132.8049    6.3574 C   0  0  0  0  0  0  0  0  0  0  0  0
   24.6353  132.9125    6.5705 C   0  0  0  0  0  0  0  0  0  0  0  0
   25.1696  134.0890    7.0848 C   0  0  0  0  0  0  0  0  0  0  0  0
   26.5439  134.1816    7.2782 C   0  0  0  0  0  0  0  0  0  0  0  0
   27.3733  133.1116    6.9616 C   0  0  0  0  0  0  0  0  0  0  0  0
   26.8299  131.9387    6.4471 C   0  0  0  0  0  0  0  0  0  0  0  0
   25.4569  131.8365    6.2502 C   0  0  0  0  0  0  0  0  0  0  0  0
   22.9921  132.1450    3.9401 C   0  0  0  0  0  0  0  0  0  0  0  0
   22.8850  130.9394    4.2935 O   0  0  0  0  0  0  0  0  0  0  0  0
   23.4140  132.4750    2.6072 N   0  0  0  0  0  0  0  0  0  0  0  0
   23.7364  131.4570    1.6063 C   0  0  1  0  0  0  0  0  0  0  0  0
   23.8603  132.1224    0.2247 C   0  0  0  0  0  0  0  0  0  0  0  0
   24.9069  131.4374   -0.6608 C   0  0  0  0  0  0  0  0  0  0  0  0
   25.9011  132.6494   -1.5152 S   0  0  0  0  0  0  0  0  0  0  0  0
   25.5255  134.2682   -0.8820 C   0  0  0  0  0  0  0  0  0  0  0  0
   27.3591  132.3575   -1.2974 O   0  0  0  0  0  0  0  0  0  0  0  0
   25.5980  132.6100   -2.9868 O   0  0  0  0  0  0  0  0  0  0  0  0
   25.0047  130.7502    2.0018 C   0  0  0  0  0  0  0  0  0  0  0  0
   25.1290  129.5093    1.8232 O   0  0  0  0  0  0  0  0  0  0  0  0
   26.0559  131.4703    2.5549 O   0  5  0  0  0  0  0  0  0  0  0  0
   20.1674  134.7221    4.9178 N   0  0  0  0  0  0  0  0  0  0  0  0
   19.5018  135.1279    3.6619 C   0  0  0  0  0  0  0  0  0  0  0  0
   18.9538  133.9282    2.8452 C   0  0  2  0  0  0  0  0  0  0  0  0
   19.1647  132.6554    3.5494 N   0  0  0  0  0  0  0  0  0  0  0  0
   19.5432  133.8835    1.4185 C   0  0  0  0  0  0  0  0  0  0  0  0
   18.3713  133.2025    0.2593 S   0  0  0  0  0  0  0  0  0  0  0  0
   17.7486  138.2226    6.1058 H   0  0  0  0  0  0  0  0  0  0  0  0
   18.9777  139.0640    5.4364 H   0  0  0  0  0  0  0  0  0  0  0  0
   18.3611  137.7648    4.6629 H   0  0  0  0  0  0  0  0  0  0  0  0
   19.1772  136.3475    6.3928 H   0  0  0  0  0  0  0  0  0  0  0  0
   19.7938  137.6467    7.1663 H   0  0  0  0  0  0  0  0  0  0  0  0
   21.6379  137.5028    6.0424 H   0  0  0  0  0  0  0  0  0  0  0  0
   21.7350  137.7428    3.6692 H   0  0  0  0  0  0  0  0  0  0  0  0
   20.1198  137.5145    3.5941 H   0  0  0  0  0  0  0  0  0  0  0  0
   20.7239  138.8344    4.3420 H   0  0  0  0  0  0  0  0  0  0  0  0
   21.7055  135.2501    6.1095 H   0  0  0  0  0  0  0  0  0  0  0  0
   22.9253  136.2973    4.0739 H   0  0  0  0  0  0  0  0  0  0  0  0
   22.0355  135.1595    3.3121 H   0  0  0  0  0  0  0  0  0  0  0  0
   21.7212  133.4096    4.9547 H   0  0  0  0  0  0  0  0  0  0  0  0
   22.8691  131.8541    6.5005 H   0  0  0  0  0  0  0  0  0  0  0  0
   22.6834  133.3891    7.0257 H   0  0  0  0  0  0  0  0  0  0  0  0
   24.5732  134.8586    7.3127 H   0  0  0  0  0  0  0  0  0  0  0  0
   26.9380  135.0233    7.6474 H   0  0  0  0  0  0  0  0  0  0  0  0
   28.3604  133.1850    7.1038 H   0  0  0  0  0  0  0  0  0  0  0  0
   27.4264  131.1693    6.2188 H   0  0  0  0  0  0  0  0  0  0  0  0
   25.0627  130.9950    5.8807 H   0  0  0  0  0  0  0  0  0  0  0  0
   23.4905  133.4391    2.3529 H   0  0  0  0  0  0  0  0  0  0  0  0
   22.9925  130.7893    1.5759 H   0  0  0  0  0  0  0  0  0  0  0  0
   24.1229  133.0790    0.3511 H   0  0  0  0  0  0  0  0  0  0  0  0
   22.9728  132.0781   -0.2340 H   0  0  0  0  0  0  0  0  0  0  0  0
   24.4419  130.8615   -1.3331 H   0  0  0  0  0  0  0  0  0  0  0  0
   25.4999  130.8702   -0.0893 H   0  0  0  0  0  0  0  0  0  0  0  0
   26.0809  134.9497   -1.3586 H   0  0  0  0  0  0  0  0  0  0  0  0
   24.5564  134.4667   -1.0281 H   0  0  0  0  0  0  0  0  0  0  0  0
   25.7281  134.2986    0.0968 H   0  0  0  0  0  0  0  0  0  0  0  0
   19.5051  134.7771    5.6650 H   0  0  0  0  0  0  0  0  0  0  0  0
   20.1630  135.6215    3.0969 H   0  0  0  0  0  0  0  0  0  0  0  0
   18.7388  135.7334    3.8879 H   0  0  0  0  0  0  0  0  0  0  0  0
   17.9664  134.0572    2.7544 H   0  0  0  0  0  0  0  0  0  0  0  0
   19.0670  131.8975    2.9044 H   0  0  0  0  0  0  0  0  0  0  0  0
   20.0835  132.6410    3.9439 H   0  0  0  0  0  0  0  0  0  0  0  0
   20.3660  133.3152    1.4229 H   0  0  0  0  0  0  0  0  0  0  0  0
   19.7812  134.8123    1.1345 H   0  0  0  0  0  0  0  0  0  0  0  0
   18.1290  132.2730    0.5375 H   0  0  0  0  0  0  0  0  0  0  0  0
  1  2  1  0  0  0  0
  2  3  1  0  0  0  0
  3  4  1  0  0  0  0
  3  5  1  0  0  0  0
  5  6  1  0  0  0  0
  6  7  1  0  0  0  0
  7  8  1  0  0  0  0
  8  9  1  0  0  0  0
  9 10  1  0  0  0  0
 10 11  2  0  0  0  0
 11 12  1  0  0  0  0
 12 13  2  0  0  0  0
 13 14  1  0  0  0  0
 14 15  2  0  0  0  0
  8 16  1  0  0  0  0
 16 17  2  0  0  0  0
 16 18  1  0  0  0  0
 18 19  1  0  0  0  0
 19 20  1  0  0  0  0
 20 21  1  0  0  0  0
 21 22  1  0  0  0  0
 22 23  1  0  0  0  0
 22 24  2  0  0  0  0
 22 25  2  0  0  0  0
 19 26  1  0  0  0  0
 26 27  2  0  0  0  0
 26 28  1  0  0  0  0
  5 29  1  0  0  0  0
 29 30  1  0  0  0  0
 30 31  1  0  0  0  0
 31 32  1  0  0  0  0
 31 33  1  0  0  0  0
 33 34  1  0  0  0  0
 15 10  1  0  0  0  0
  1 35  1  0  0  0  0
  1 36  1  0  0  0  0
  1 37  1  0  0  0  0
  2 38  1  0  0  0  0
  2 39  1  0  0  0  0
  3 40  1  0  0  0  0
  4 41  1  0  0  0  0
  4 42  1  0  0  0  0
  4 43  1  0  0  0  0
  5 44  1  0  0  0  0
  6 45  1  0  0  0  0
  6 46  1  0  0  0  0
  8 47  1  0  0  0  0
  9 48  1  0  0  0  0
  9 49  1  0  0  0  0
 11 50  1  0  0  0  0
 12 51  1  0  0  0  0
 13 52  1  0  0  0  0
 14 53  1  0  0  0  0
 15 54  1  0  0  0  0
 18 55  1  0  0  0  0
 19 56  1  0  0  0  0
 20 57  1  0  0  0  0
 20 58  1  0  0  0  0
 21 59  1  0  0  0  0
 21 60  1  0  0  0  0
 23 61  1  0  0  0  0
 23 62  1  0  0  0  0
 23 63  1  0  0  0  0
 34 72  1  0  0  0  0
 29 64  1  0  0  0  0
 30 65  1  0  0  0  0
 30 66  1  0  0  0  0
 31 67  1  0  0  0  0
 33 71  1  0  0  0  0
 32 68  1  0  0  0  0
 32 69  1  0  0  0  0
 33 70  1  0  0  0  0
M  CHG  1  28  -1
M  END
> <BIOSOLVEIT.HYDE_ESTIMATED_AFFINITY_LOWER_BOUNDARY [nM]>
46198.387752

> <BIOSOLVEIT.HYDE_ESTIMATED_AFFINITY_UPPER_BOUNDARY [nM]>
4590082.969630

> <BIOSOLVEIT.HYDE_LIGAND_EFFICIENCY range: ++, +, 0, -, -->
--

> <BIOSOLVEIT.HYDE_LIGAND_LIPOPHILIC_EFFICIENCY range: ++, +, 0, -, -->
-

> <BIOSOLVEIT.INTER_CLASH range: red, yellow, green>
green

> <BIOSOLVEIT.INTRA_CLASH range: red, yellow, green>
green

> <BIOSOLVEIT.LOGP>
0.5759

> <BIOSOLVEIT.MOLECULAR WEIGHT>
516.698

> <BIOSOLVEIT.MOLECULE_CHECKSUM>
LTE5LjA0NjM7MC41NjAxODc=

> <BIOSOLVEIT.TORSION_QUALITY range: red, yellow, green, not rotatable>
red

> <BIOSOLVEIT.TPSA>
150.65

$$$$
1JCQ_739_3
foHydescor03192112133D 1   1.00000     0.00000     0
Hydescorer 1.1.0 fol007
 73 73  0  0  0  0            999 V2000
   21.6163  137.2636    1.7308 C   0  0  0  0  0  0  0  0  0  0  0  0
   20.9986  136.6870    3.0058 C   0  0  0  0  0  0  0  0  0  0  0  0
   19.9868  135.5446    2.7255 C   0  0  2  0  0  0  0  0  0  0  0  0
   18.7277  136.0862    2.0205 C   0  0  0  0  0  0  0  0  0  0  0  0
   19.5982  134.7136    4.0041 C   0  0  2  0  0  0  0  0  0  0  0  0
   20.7791  134.5199    4.9879 C   0  0  0  0  0  0  0  0  0  0  0  0
   21.9254  134.0523    4.3014 O   0  0  0  0  0  0  0  0  0  0  0  0
   22.5432  132.9930    5.0134 C   0  0  2  0  0  0  0  0  0  0  0  0
   23.7229  133.5433    5.8374 C   0  0  0  0  0  0  0  0  0  0  0  0
   24.5660  134.5345    5.0706 C   0  0  0  0  0  0  0  0  0  0  0  0
   24.2470  135.8872    5.1210 C   0  0  0  0  0  0  0  0  0  0  0  0
   25.0272  136.7945    4.4121 C   0  0  0  0  0  0  0  0  0  0  0  0
   26.1125  136.3552    3.6625 C   0  0  0  0  0  0  0  0  0  0  0  0
   26.4240  134.9999    3.6176 C   0  0  0  0  0  0  0  0  0  0  0  0
   25.6498  134.0849    4.3232 C   0  0  0  0  0  0  0  0  0  0  0  0
   23.0104  131.9162    4.0638 C   0  0  0  0  0  0  0  0  0  0  0  0
   23.1071  130.7294    4.4785 O   0  0  0  0  0  0  0  0  0  0  0  0
   23.3731  132.2437    2.7129 N   0  0  0  0  0  0  0  0  0  0  0  0
   23.8638  131.2445    1.7626 C   0  0  1  0  0  0  0  0  0  0  0  0
   24.2628  131.9420    0.4507 C   0  0  0  0  0  0  0  0  0  0  0  0
   25.5506  132.7604    0.5934 C   0  0  0  0  0  0  0  0  0  0  0  0
   26.2522  133.1173   -1.0089 S   0  0  0  0  0  0  0  0  0  0  0  0
   25.2088  132.4279   -2.2732 C   0  0  0  0  0  0  0  0  0  0  0  0
   26.3498  134.6045   -1.2026 O   0  0  0  0  0  0  0  0  0  0  0  0
   27.6229  132.5092   -1.1111 O   0  0  0  0  0  0  0  0  0  0  0  0
   25.0197  130.4988    2.3730 C   0  0  0  0  0  0  0  0  0  0  0  0
   25.2428  129.2982    2.0632 O   0  0  0  0  0  0  0  0  0  0  0  0
   25.8597  131.1400    3.2744 O   0  5  0  0  0  0  0  0  0  0  0  0
   18.9790  133.4047    3.6659 N   0  0  0  0  0  0  0  0  0  0  0  0
   19.7952  132.6278    2.7092 C   0  0  0  0  0  0  0  0  0  0  0  0
   18.9889  132.1311    1.4803 C   0  0  2  0  0  0  0  0  0  0  0  0
   19.2477  130.7110    1.2039 N   0  3  0  0  0  0  0  0  0  0  0  0
   19.2466  133.0011    0.2309 C   0  0  0  0  0  0  0  0  0  0  0  0
   20.9939  133.2101   -0.0585 S   0  0  0  0  0  0  0  0  0  0  0  0
   22.2572  137.9925    1.9711 H   0  0  0  0  0  0  0  0  0  0  0  0
   22.1024  136.5408    1.2395 H   0  0  0  0  0  0  0  0  0  0  0  0
   20.8930  137.6343    1.1482 H   0  0  0  0  0  0  0  0  0  0  0  0
   20.5237  137.4215    3.4904 H   0  0  0  0  0  0  0  0  0  0  0  0
   21.7330  136.3281    3.5818 H   0  0  0  0  0  0  0  0  0  0  0  0
   20.4289  134.9123    2.0892 H   0  0  0  0  0  0  0  0  0  0  0  0
   18.0913  135.3338    1.8502 H   0  0  0  0  0  0  0  0  0  0  0  0
   18.2876  136.7698    2.6028 H   0  0  0  0  0  0  0  0  0  0  0  0
   18.9872  136.5064    1.1509 H   0  0  0  0  0  0  0  0  0  0  0  0
   18.9030  135.2430    4.4905 H   0  0  0  0  0  0  0  0  0  0  0  0
   20.5193  133.8534    5.6865 H   0  0  0  0  0  0  0  0  0  0  0  0
   20.9907  135.3946    5.4240 H   0  0  0  0  0  0  0  0  0  0  0  0
   21.8729  132.5966    5.6407 H   0  0  0  0  0  0  0  0  0  0  0  0
   24.3034  132.7775    6.1137 H   0  0  0  0  0  0  0  0  0  0  0  0
   23.3592  133.9965    6.6514 H   0  0  0  0  0  0  0  0  0  0  0  0
   23.4665  136.2036    5.6602 H   0  0  0  0  0  0  0  0  0  0  0  0
   24.8061  137.7693    4.4418 H   0  0  0  0  0  0  0  0  0  0  0  0
   26.6693  137.0132    3.1556 H   0  0  0  0  0  0  0  0  0  0  0  0
   27.2044  134.6838    3.0781 H   0  0  0  0  0  0  0  0  0  0  0  0
   25.8707  133.1101    4.2934 H   0  0  0  0  0  0  0  0  0  0  0  0
   23.2869  133.1926    2.4095 H   0  0  0  0  0  0  0  0  0  0  0  0
   23.1280  130.5952    1.5705 H   0  0  0  0  0  0  0  0  0  0  0  0
   23.5221  132.5542    0.1741 H   0  0  0  0  0  0  0  0  0  0  0  0
   24.4009  131.2461   -0.2540 H   0  0  0  0  0  0  0  0  0  0  0  0
   26.2124  132.2398    1.1329 H   0  0  0  0  0  0  0  0  0  0  0  0
   25.3431  133.6203    1.0599 H   0  0  0  0  0  0  0  0  0  0  0  0
   25.5991  132.6262   -3.1723 H   0  0  0  0  0  0  0  0  0  0  0  0
   25.1442  131.4378   -2.1489 H   0  0  0  0  0  0  0  0  0  0  0  0
   24.2963  132.8322   -2.2095 H   0  0  0  0  0  0  0  0  0  0  0  0
   18.0795  133.5696    3.2614 H   0  0  0  0  0  0  0  0  0  0  0  0
   20.1715  131.8327    3.1848 H   0  0  0  0  0  0  0  0  0  0  0  0
   20.5430  133.2073    2.3854 H   0  0  0  0  0  0  0  0  0  0  0  0
   18.0188  132.2174    1.7072 H   0  0  0  0  0  0  0  0  0  0  0  0
   19.2476  130.1988    2.0628 H   0  0  0  0  0  0  0  0  0  0  0  0
   18.5337  130.3531    0.6023 H   0  0  0  0  0  0  0  0  0  0  0  0
   20.1379  130.6149    0.7586 H   0  0  0  0  0  0  0  0  0  0  0  0
   18.8285  133.8993    0.3667 H   0  0  0  0  0  0  0  0  0  0  0  0
   18.8344  132.5586   -0.5656 H   0  0  0  0  0  0  0  0  0  0  0  0
   21.3924  133.7502    0.6828 H   0  0  0  0  0  0  0  0  0  0  0  0
  1  2  1  0  0  0  0
  2  3  1  0  0  0  0
  3  4  1  0  0  0  0
  3  5  1  0  0  0  0
  5  6  1  0  0  0  0
  6  7  1  0  0  0  0
  7  8  1  0  0  0  0
  8  9  1  0  0  0  0
  9 10  1  0  0  0  0
 10 11  2  0  0  0  0
 11 12  1  0  0  0  0
 12 13  2  0  0  0  0
 13 14  1  0  0  0  0
 14 15  2  0  0  0  0
  8 16  1  0  0  0  0
 16 17  2  0  0  0  0
 16 18  1  0  0  0  0
 18 19  1  0  0  0  0
 19 20  1  0  0  0  0
 20 21  1  0  0  0  0
 21 22  1  0  0  0  0
 22 23  1  0  0  0  0
 22 24  2  0  0  0  0
 22 25  2  0  0  0  0
 19 26  1  0  0  0  0
 26 27  2  0  0  0  0
 26 28  1  0  0  0  0
  5 29  1  0  0  0  0
 29 30  1  0  0  0  0
 30 31  1  0  0  0  0
 31 32  1  0  0  0  0
 31 33  1  0  0  0  0
 33 34  1  0  0  0  0
 15 10  1  0  0  0  0
  1 35  1  0  0  0  0
  1 36  1  0  0  0  0
  1 37  1  0  0  0  0
  2 38  1  0  0  0  0
  2 39  1  0  0  0  0
  3 40  1  0  0  0  0
  4 41  1  0  0  0  0
  4 42  1  0  0  0  0
  4 43  1  0  0  0  0
  5 44  1  0  0  0  0
  6 45  1  0  0  0  0
  6 46  1  0  0  0  0
  8 47  1  0  0  0  0
  9 48  1  0  0  0  0
  9 49  1  0  0  0  0
 11 50  1  0  0  0  0
 12 51  1  0  0  0  0
 13 52  1  0  0  0  0
 14 53  1  0  0  0  0
 15 54  1  0  0  0  0
 18 55  1  0  0  0  0
 19 56  1  0  0  0  0
 20 57  1  0  0  0  0
 20 58  1  0  0  0  0
 21 59  1  0  0  0  0
 21 60  1  0  0  0  0
 23 61  1  0  0  0  0
 23 62  1  0  0  0  0
 23 63  1  0  0  0  0
 34 73  1  0  0  0  0
 29 64  1  0  0  0  0
 30 65  1  0  0  0  0
 30 66  1  0  0  0  0
 31 67  1  0  0  0  0
 32 68  1  0  0  0  0
 32 69  1  0  0  0  0
 32 70  1  0  0  0  0
 33 71  1  0  0  0  0
 33 72  1  0  0  0  0
M  CHG  2  28  -1  32   1
M  END
> <BIOSOLVEIT.HYDE_ESTIMATED_AFFINITY_LOWER_BOUNDARY [nM]>
1925.542957

> <BIOSOLVEIT.HYDE_ESTIMATED_AFFINITY_UPPER_BOUNDARY [nM]>
191314.077447

> <BIOSOLVEIT.HYDE_LIGAND_EFFICIENCY range: ++, +, 0, -, -->
--

> <BIOSOLVEIT.HYDE_LIGAND_LIPOPHILIC_EFFICIENCY range: ++, +, 0, -, -->
0

> <BIOSOLVEIT.INTER_CLASH range: red, yellow, green>
green

> <BIOSOLVEIT.INTRA_CLASH range: red, yellow, green>
yellow

> <BIOSOLVEIT.LOGP>
-0.1409

> <BIOSOLVEIT.MOLECULAR WEIGHT>
517.706

> <BIOSOLVEIT.MOLECULE_CHECKSUM>
LTI2LjkyMzg7MC43OTE4Nzc=

> <BIOSOLVEIT.TORSION_QUALITY range: red, yellow, green, not rotatable>
red

> <BIOSOLVEIT.TPSA>
152.27

$$$$
2IEJ_FII_1
foHydescor03192112133D 1   1.00000     0.00000     0
Hydescorer 1.1.0 fol007
 52 51  0  0  0  0            999 V2000
   15.5236  131.3571   -4.9219 C   0  0  0  0  0  0  0  0  0  0  0  0
   14.3321  130.8223   -4.1630 C   0  0  0  0  0  0  0  0  0  0  0  0
   13.4713  131.7649   -3.3623 C   0  0  0  0  0  0  0  0  0  0  0  0
   14.0136  129.5108   -4.1823 C   0  0  0  0  0  0  0  0  0  0  0  0
   14.8072  128.4817   -4.9508 C   0  0  0  0  0  0  0  0  0  0  0  0
   15.3883  127.4153   -4.0153 C   0  0  0  0  0  0  0  0  0  0  0  0
   16.7596  127.8211   -3.5201 C   0  0  0  0  0  0  0  0  0  0  0  0
   16.8865  128.4916   -2.1717 C   0  0  0  0  0  0  0  0  0  0  0  0
   17.8370  127.5838   -4.3033 C   0  0  0  0  0  0  0  0  0  0  0  0
   19.2554  127.9369   -3.9318 C   0  0  0  0  0  0  0  0  0  0  0  0
   19.5874  129.3721   -4.3558 C   0  0  0  0  0  0  0  0  0  0  0  0
   20.6161  129.9826   -3.4298 C   0  0  0  0  0  0  0  0  0  0  0  0
   22.0826  129.8748   -3.7756 C   0  0  0  0  0  0  0  0  0  0  0  0
   20.2024  130.6056   -2.3043 C   0  0  0  0  0  0  0  0  0  0  0  0
   21.1448  131.2435   -1.3207 C   0  0  0  0  0  0  0  0  0  0  0  0
   22.0641  130.2806   -0.8644 O   0  0  0  0  0  0  0  0  0  0  0  0
   22.3342  130.5869    0.4323 N   0  0  0  0  0  0  0  0  0  0  0  0
   23.3942  131.4886    0.7662 C   0  0  0  0  0  0  0  0  0  0  0  0
   24.0898  132.0084   -0.1473 O   0  0  0  0  0  0  0  0  0  0  0  0
   23.7174  131.7750    2.1980 C   0  0  0  0  0  0  0  0  0  0  0  0
   24.8322  130.4960    2.8499 P   0  0  0  0  0  0  0  0  0  0  0  0
   24.0511  129.5230    3.7035 O   0  0  0  0  0  0  0  0  0  0  0  0
   25.5539  129.6644    1.5665 O   0  5  0  0  0  0  0  0  0  0  0  0
   26.0327  131.2268    3.7896 O   0  5  0  0  0  0  0  0  0  0  0  0
   15.9818  130.6052   -5.3958 H   0  0  0  0  0  0  0  0  0  0  0  0
   15.2164  132.0345   -5.5904 H   0  0  0  0  0  0  0  0  0  0  0  0
   16.1613  131.7858   -4.2819 H   0  0  0  0  0  0  0  0  0  0  0  0
   12.7321  131.2520   -2.9259 H   0  0  0  0  0  0  0  0  0  0  0  0
   14.0277  132.2098   -2.6605 H   0  0  0  0  0  0  0  0  0  0  0  0
   13.0829  132.4585   -3.9690 H   0  0  0  0  0  0  0  0  0  0  0  0
   13.2149  129.2065   -3.6633 H   0  0  0  0  0  0  0  0  0  0  0  0
   15.5568  128.9389   -5.4293 H   0  0  0  0  0  0  0  0  0  0  0  0
   14.2074  128.0387   -5.6172 H   0  0  0  0  0  0  0  0  0  0  0  0
   15.4619  126.5498   -4.5109 H   0  0  0  0  0  0  0  0  0  0  0  0
   14.7781  127.2996   -3.2315 H   0  0  0  0  0  0  0  0  0  0  0  0
   17.8485  128.6958   -1.9902 H   0  0  0  0  0  0  0  0  0  0  0  0
   16.3596  129.3415   -2.1712 H   0  0  0  0  0  0  0  0  0  0  0  0
   16.5354  127.8813   -1.4616 H   0  0  0  0  0  0  0  0  0  0  0  0
   17.6824  127.1446   -5.1883 H   0  0  0  0  0  0  0  0  0  0  0  0
   19.8813  127.3062   -4.3907 H   0  0  0  0  0  0  0  0  0  0  0  0
   19.3653  127.8538   -2.9413 H   0  0  0  0  0  0  0  0  0  0  0  0
   18.7535  129.9232   -4.3279 H   0  0  0  0  0  0  0  0  0  0  0  0
   19.9499  129.3628   -5.2877 H   0  0  0  0  0  0  0  0  0  0  0  0
   22.6260  130.3258   -3.0676 H   0  0  0  0  0  0  0  0  0  0  0  0
   22.3420  128.9107   -3.8312 H   0  0  0  0  0  0  0  0  0  0  0  0
   22.2506  130.3166   -4.6568 H   0  0  0  0  0  0  0  0  0  0  0  0
   19.2211  130.6444   -2.1160 H   0  0  0  0  0  0  0  0  0  0  0  0
   20.6253  131.6029   -0.5454 H   0  0  0  0  0  0  0  0  0  0  0  0
   21.6376  131.9907   -1.7668 H   0  0  0  0  0  0  0  0  0  0  0  0
   21.7857  130.1775    1.1613 H   0  0  0  0  0  0  0  0  0  0  0  0
   22.8728  131.7826    2.7332 H   0  0  0  0  0  0  0  0  0  0  0  0
   24.1626  132.6680    2.2650 H   0  0  0  0  0  0  0  0  0  0  0  0
  1  2  1  0  0  0  0
  2  3  1  0  0  0  0
  2  4  2  0  0  0  0
  4  5  1  0  0  0  0
  5  6  1  0  0  0  0
  6  7  1  0  0  0  0
  7  8  1  0  0  0  0
  7  9  2  0  0  0  0
  9 10  1  0  0  0  0
 10 11  1  0  0  0  0
 11 12  1  0  0  0  0
 12 13  1  0  0  0  0
 12 14  2  0  0  0  0
 14 15  1  0  0  0  0
 15 16  1  0  0  0  0
 16 17  1  0  0  0  0
 17 18  1  0  0  0  0
 18 19  2  0  0  0  0
 18 20  1  0  0  0  0
 20 21  1  0  0  0  0
 21 22  2  0  0  0  0
 21 23  1  0  0  0  0
 21 24  1  0  0  0  0
  1 25  1  0  0  0  0
  1 26  1  0  0  0  0
  1 27  1  0  0  0  0
  3 28  1  0  0  0  0
  3 29  1  0  0  0  0
  3 30  1  0  0  0  0
  4 31  1  0  0  0  0
  5 32  1  0  0  0  0
  5 33  1  0  0  0  0
  6 34  1  0  0  0  0
  6 35  1  0  0  0  0
  8 36  1  0  0  0  0
  8 37  1  0  0  0  0
  8 38  1  0  0  0  0
  9 39  1  0  0  0  0
 10 40  1  0  0  0  0
 10 41  1  0  0  0  0
 11 42  1  0  0  0  0
 11 43  1  0  0  0  0
 13 44  1  0  0  0  0
 13 45  1  0  0  0  0
 13 46  1  0  0  0  0
 14 47  1  0  0  0  0
 15 48  1  0  0  0  0
 15 49  1  0  0  0  0
 17 50  1  0  0  0  0
 20 51  1  0  0  0  0
 20 52  1  0  0  0  0
M  CHG  2  23  -1  24  -1
M  END
> <BIOSOLVEIT.HYDE_ESTIMATED_AFFINITY_LOWER_BOUNDARY [nM]>
103.389952

> <BIOSOLVEIT.HYDE_ESTIMATED_AFFINITY_UPPER_BOUNDARY [nM]>
10272.403066

> <BIOSOLVEIT.HYDE_LIGAND_EFFICIENCY range: ++, +, 0, -, -->
0

> <BIOSOLVEIT.HYDE_LIGAND_LIPOPHILIC_EFFICIENCY range: ++, +, 0, -, -->
0

> <BIOSOLVEIT.INTER_CLASH range: red, yellow, green>
green

> <BIOSOLVEIT.INTRA_CLASH range: red, yellow, green>
green

> <BIOSOLVEIT.LOGP>
2.3671

> <BIOSOLVEIT.MOLECULAR WEIGHT>
357.384

> <BIOSOLVEIT.MOLECULE_CHECKSUM>
LTM0LjE3MzQ7MS40MjM4OQ==

> <BIOSOLVEIT.TORSION_QUALITY range: red, yellow, green, not rotatable>
red

> <BIOSOLVEIT.TPSA>
101.52

$$$$
2IEJ_FII_2
foHydescor03192112133D 1   1.00000     0.00000     0
Hydescorer 1.1.0 fol007
 52 51  0  0  0  0            999 V2000
   12.6861  127.7418   -6.1751 C   0  0  0  0  0  0  0  0  0  0  0  0
   13.7712  128.7408   -6.5009 C   0  0  0  0  0  0  0  0  0  0  0  0
   13.6510  129.5995   -7.7333 C   0  0  0  0  0  0  0  0  0  0  0  0
   14.8561  128.8871   -5.7113 C   0  0  0  0  0  0  0  0  0  0  0  0
   15.0757  128.0789   -4.4552 C   0  0  0  0  0  0  0  0  0  0  0  0
   15.5491  128.9666   -3.2985 C   0  0  0  0  0  0  0  0  0  0  0  0
   16.9550  128.5987   -2.8763 C   0  0  0  0  0  0  0  0  0  0  0  0
   17.3255  128.6666   -1.4127 C   0  0  0  0  0  0  0  0  0  0  0  0
   17.8491  128.2293   -3.8223 C   0  0  0  0  0  0  0  0  0  0  0  0
   19.2780  127.8391   -3.5389 C   0  0  0  0  0  0  0  0  0  0  0  0
   20.2512  128.7659   -4.2762 C   0  0  0  0  0  0  0  0  0  0  0  0
   20.8596  129.7734   -3.3258 C   0  0  0  0  0  0  0  0  0  0  0  0
   21.9548  130.6901   -3.8176 C   0  0  0  0  0  0  0  0  0  0  0  0
   20.4168  129.8272   -2.0502 C   0  0  0  0  0  0  0  0  0  0  0  0
   20.9563  130.7916   -1.0298 C   0  0  0  0  0  0  0  0  0  0  0  0
   22.3368  130.5730   -0.8660 O   0  0  0  0  0  0  0  0  0  0  0  0
   22.5962  130.7137    0.4611 N   0  0  0  0  0  0  0  0  0  0  0  0
   23.5391  131.6859    0.9238 C   0  0  0  0  0  0  0  0  0  0  0  0
   24.1395  132.4238    0.0969 O   0  0  0  0  0  0  0  0  0  0  0  0
   23.8571  131.7937    2.3810 C   0  0  0  0  0  0  0  0  0  0  0  0
   24.8804  130.3835    2.8984 P   0  0  0  0  0  0  0  0  0  0  0  0
   24.0476  129.4173    3.7097 O   0  0  0  0  0  0  0  0  0  0  0  0
   25.4888  129.5926    1.5332 O   0  5  0  0  0  0  0  0  0  0  0  0
   26.1672  130.9428    3.8417 O   0  5  0  0  0  0  0  0  0  0  0  0
   12.9201  127.2588   -5.3313 H   0  0  0  0  0  0  0  0  0  0  0  0
   11.8168  128.2212   -6.0546 H   0  0  0  0  0  0  0  0  0  0  0  0
   12.6030  127.0840   -6.9237 H   0  0  0  0  0  0  0  0  0  0  0  0
   14.4474  130.2006   -7.7997 H   0  0  0  0  0  0  0  0  0  0  0  0
   13.6061  129.0152   -8.5436 H   0  0  0  0  0  0  0  0  0  0  0  0
   12.8200  130.1525   -7.6745 H   0  0  0  0  0  0  0  0  0  0  0  0
   15.5466  129.5624   -5.9704 H   0  0  0  0  0  0  0  0  0  0  0  0
   15.7683  127.3801   -4.6342 H   0  0  0  0  0  0  0  0  0  0  0  0
   14.2162  127.6379   -4.1970 H   0  0  0  0  0  0  0  0  0  0  0  0
   14.9319  128.8477   -2.5207 H   0  0  0  0  0  0  0  0  0  0  0  0
   15.5348  129.9224   -3.5921 H   0  0  0  0  0  0  0  0  0  0  0  0
   18.2812  128.3955   -1.2979 H   0  0  0  0  0  0  0  0  0  0  0  0
   17.2020  129.6017   -1.0806 H   0  0  0  0  0  0  0  0  0  0  0  0
   16.7385  128.0474   -0.8912 H   0  0  0  0  0  0  0  0  0  0  0  0
   17.5415  128.2139   -4.7736 H   0  0  0  0  0  0  0  0  0  0  0  0
   19.4274  126.8981   -3.8426 H   0  0  0  0  0  0  0  0  0  0  0  0
   19.4463  127.9026   -2.5552 H   0  0  0  0  0  0  0  0  0  0  0  0
   19.7578  129.2522   -4.9973 H   0  0  0  0  0  0  0  0  0  0  0  0
   20.9813  128.2172   -4.6834 H   0  0  0  0  0  0  0  0  0  0  0  0
   22.2462  131.2906   -3.0729 H   0  0  0  0  0  0  0  0  0  0  0  0
   22.7323  130.1437   -4.1289 H   0  0  0  0  0  0  0  0  0  0  0  0
   21.6108  131.2431   -4.5765 H   0  0  0  0  0  0  0  0  0  0  0  0
   19.6946  129.1945   -1.7709 H   0  0  0  0  0  0  0  0  0  0  0  0
   20.4898  130.6495   -0.1568 H   0  0  0  0  0  0  0  0  0  0  0  0
   20.8014  131.7290   -1.3418 H   0  0  0  0  0  0  0  0  0  0  0  0
   22.1227  130.1310    1.1216 H   0  0  0  0  0  0  0  0  0  0  0  0
   23.0063  131.7963    2.9065 H   0  0  0  0  0  0  0  0  0  0  0  0
   24.3554  132.6442    2.5494 H   0  0  0  0  0  0  0  0  0  0  0  0
  1  2  1  0  0  0  0
  2  3  1  0  0  0  0
  2  4  2  0  0  0  0
  4  5  1  0  0  0  0
  5  6  1  0  0  0  0
  6  7  1  0  0  0  0
  7  8  1  0  0  0  0
  7  9  2  0  0  0  0
  9 10  1  0  0  0  0
 10 11  1  0  0  0  0
 11 12  1  0  0  0  0
 12 13  1  0  0  0  0
 12 14  2  0  0  0  0
 14 15  1  0  0  0  0
 15 16  1  0  0  0  0
 16 17  1  0  0  0  0
 17 18  1  0  0  0  0
 18 19  2  0  0  0  0
 18 20  1  0  0  0  0
 20 21  1  0  0  0  0
 21 22  2  0  0  0  0
 21 23  1  0  0  0  0
 21 24  1  0  0  0  0
  1 25  1  0  0  0  0
  1 26  1  0  0  0  0
  1 27  1  0  0  0  0
  3 28  1  0  0  0  0
  3 29  1  0  0  0  0
  3 30  1  0  0  0  0
  4 31  1  0  0  0  0
  5 32  1  0  0  0  0
  5 33  1  0  0  0  0
  6 34  1  0  0  0  0
  6 35  1  0  0  0  0
  8 36  1  0  0  0  0
  8 37  1  0  0  0  0
  8 38  1  0  0  0  0
  9 39  1  0  0  0  0
 10 40  1  0  0  0  0
 10 41  1  0  0  0  0
 11 42  1  0  0  0  0
 11 43  1  0  0  0  0
 13 44  1  0  0  0  0
 13 45  1  0  0  0  0
 13 46  1  0  0  0  0
 14 47  1  0  0  0  0
 15 48  1  0  0  0  0
 15 49  1  0  0  0  0
 17 50  1  0  0  0  0
 20 51  1  0  0  0  0
 20 52  1  0  0  0  0
M  CHG  2  23  -1  24  -1
M  END
> <BIOSOLVEIT.HYDE_ESTIMATED_AFFINITY_LOWER_BOUNDARY [nM]>
30.107983

> <BIOSOLVEIT.HYDE_ESTIMATED_AFFINITY_UPPER_BOUNDARY [nM]>
2991.406075

> <BIOSOLVEIT.HYDE_LIGAND_EFFICIENCY range: ++, +, 0, -, -->
0

> <BIOSOLVEIT.HYDE_LIGAND_LIPOPHILIC_EFFICIENCY range: ++, +, 0, -, -->
0

> <BIOSOLVEIT.INTER_CLASH range: red, yellow, green>
green

> <BIOSOLVEIT.INTRA_CLASH range: red, yellow, green>
green

> <BIOSOLVEIT.LOGP>
2.3671

> <BIOSOLVEIT.MOLECULAR WEIGHT>
357.384

> <BIOSOLVEIT.MOLECULE_CHECKSUM>
LTM3LjIzMTg7MS41NTEzMg==

> <BIOSOLVEIT.TORSION_QUALITY range: red, yellow, green, not rotatable>
red

> <BIOSOLVEIT.TPSA>
101.52

$$$$
2IEJ_FII_3
foHydescor03192112133D 1   1.00000     0.00000     0
Hydescorer 1.1.0 fol007
 52 51  0  0  0  0            999 V2000
   12.8047  128.0500   -6.4205 C   0  0  0  0  0  0  0  0  0  0  0  0
   13.9275  129.0389   -6.6281 C   0  0  0  0  0  0  0  0  0  0  0  0
   14.1217  129.6762   -7.9796 C   0  0  0  0  0  0  0  0  0  0  0  0
   14.7698  129.3708   -5.6270 C   0  0  0  0  0  0  0  0  0  0  0  0
   14.6649  128.7925   -4.2364 C   0  0  0  0  0  0  0  0  0  0  0  0
   15.5013  127.5148   -4.1010 C   0  0  0  0  0  0  0  0  0  0  0  0
   16.8526  127.8166   -3.4899 C   0  0  0  0  0  0  0  0  0  0  0  0
   16.9156  128.4472   -2.1180 C   0  0  0  0  0  0  0  0  0  0  0  0
   17.9710  127.5246   -4.1931 C   0  0  0  0  0  0  0  0  0  0  0  0
   19.3754  127.7732   -3.7031 C   0  0  0  0  0  0  0  0  0  0  0  0
   19.9879  128.9916   -4.4031 C   0  0  0  0  0  0  0  0  0  0  0  0
   20.7703  129.8384   -3.4237 C   0  0  0  0  0  0  0  0  0  0  0  0
   22.1311  130.3624   -3.8175 C   0  0  0  0  0  0  0  0  0  0  0  0
   20.2390  130.1019   -2.2094 C   0  0  0  0  0  0  0  0  0  0  0  0
   20.9361  130.9321   -1.1667 C   0  0  0  0  0  0  0  0  0  0  0  0
   22.1956  130.3695   -0.8884 O   0  0  0  0  0  0  0  0  0  0  0  0
   22.4476  130.6150    0.4248 N   0  0  0  0  0  0  0  0  0  0  0  0
   23.4447  131.5651    0.8139 C   0  0  0  0  0  0  0  0  0  0  0  0
   24.1008  132.1851   -0.0658 O   0  0  0  0  0  0  0  0  0  0  0  0
   23.7515  131.7862    2.2608 C   0  0  0  0  0  0  0  0  0  0  0  0
   24.8467  130.4701    2.8706 P   0  0  0  0  0  0  0  0  0  0  0  0
   24.0538  129.4902    3.7052 O   0  0  0  0  0  0  0  0  0  0  0  0
   25.5428  129.6586    1.5606 O   0  5  0  0  0  0  0  0  0  0  0  0
   26.0680  131.1538    3.8192 O   0  5  0  0  0  0  0  0  0  0  0  0
   12.8172  127.7251   -5.4748 H   0  0  0  0  0  0  0  0  0  0  0  0
   11.9293  128.4953   -6.6084 H   0  0  0  0  0  0  0  0  0  0  0  0
   12.9243  127.2749   -7.0409 H   0  0  0  0  0  0  0  0  0  0  0  0
   14.9024  130.3003   -7.9448 H   0  0  0  0  0  0  0  0  0  0  0  0
   14.2934  128.9654   -8.6618 H   0  0  0  0  0  0  0  0  0  0  0  0
   13.2984  130.1859   -8.2293 H   0  0  0  0  0  0  0  0  0  0  0  0
   15.4973  130.0305   -5.8152 H   0  0  0  0  0  0  0  0  0  0  0  0
   13.7074  128.5772   -4.0444 H   0  0  0  0  0  0  0  0  0  0  0  0
   14.9933  129.4685   -3.5767 H   0  0  0  0  0  0  0  0  0  0  0  0
   15.6340  127.1127   -5.0069 H   0  0  0  0  0  0  0  0  0  0  0  0
   15.0151  126.8656   -3.5161 H   0  0  0  0  0  0  0  0  0  0  0  0
   17.8714  128.5822   -1.8567 H   0  0  0  0  0  0  0  0  0  0  0  0
   16.4469  129.3304   -2.1352 H   0  0  0  0  0  0  0  0  0  0  0  0
   16.4703  127.8463   -1.4541 H   0  0  0  0  0  0  0  0  0  0  0  0
   17.8588  127.1163   -5.0991 H   0  0  0  0  0  0  0  0  0  0  0  0
   19.9369  126.9682   -3.8947 H   0  0  0  0  0  0  0  0  0  0  0  0
   19.3543  127.9378   -2.7170 H   0  0  0  0  0  0  0  0  0  0  0  0
   19.2550  129.5436   -4.8009 H   0  0  0  0  0  0  0  0  0  0  0  0
   20.6010  128.6788   -5.1285 H   0  0  0  0  0  0  0  0  0  0  0  0
   22.5121  130.8994   -3.0648 H   0  0  0  0  0  0  0  0  0  0  0  0
   22.7385  129.5942   -4.0196 H   0  0  0  0  0  0  0  0  0  0  0  0
   22.0437  130.9406   -4.6287 H   0  0  0  0  0  0  0  0  0  0  0  0
   19.3377  129.7264   -1.9934 H   0  0  0  0  0  0  0  0  0  0  0  0
   20.3863  130.9497   -0.3315 H   0  0  0  0  0  0  0  0  0  0  0  0
   21.0550  131.8648   -1.5072 H   0  0  0  0  0  0  0  0  0  0  0  0
   21.9302  130.1260    1.1270 H   0  0  0  0  0  0  0  0  0  0  0  0
   22.9001  131.7782    2.7851 H   0  0  0  0  0  0  0  0  0  0  0  0
   24.2033  132.6713    2.3723 H   0  0  0  0  0  0  0  0  0  0  0  0
  1  2  1  0  0  0  0
  2  3  1  0  0  0  0
  2  4  2  0  0  0  0
  4  5  1  0  0  0  0
  5  6  1  0  0  0  0
  6  7  1  0  0  0  0
  7  8  1  0  0  0  0
  7  9  2  0  0  0  0
  9 10  1  0  0  0  0
 10 11  1  0  0  0  0
 11 12  1  0  0  0  0
 12 13  1  0  0  0  0
 12 14  2  0  0  0  0
 14 15  1  0  0  0  0
 15 16  1  0  0  0  0
 16 17  1  0  0  0  0
 17 18  1  0  0  0  0
 18 19  2  0  0  0  0
 18 20  1  0  0  0  0
 20 21  1  0  0  0  0
 21 22  2  0  0  0  0
 21 23  1  0  0  0  0
 21 24  1  0  0  0  0
  1 25  1  0  0  0  0
  1 26  1  0  0  0  0
  1 27  1  0  0  0  0
  3 28  1  0  0  0  0
  3 29  1  0  0  0  0
  3 30  1  0  0  0  0
  4 31  1  0  0  0  0
  5 32  1  0  0  0  0
  5 33  1  0  0  0  0
  6 34  1  0  0  0  0
  6 35  1  0  0  0  0
  8 36  1  0  0  0  0
  8 37  1  0  0  0  0
  8 38  1  0  0  0  0
  9 39  1  0  0  0  0
 10 40  1  0  0  0  0
 10 41  1  0  0  0  0
 11 42  1  0  0  0  0
 11 43  1  0  0  0  0
 13 44  1  0  0  0  0
 13 45  1  0  0  0  0
 13 46  1  0  0  0  0
 14 47  1  0  0  0  0
 15 48  1  0  0  0  0
 15 49  1  0  0  0  0
 17 50  1  0  0  0  0
 20 51  1  0  0  0  0
 20 52  1  0  0  0  0
M  CHG  2  23  -1  24  -1
M  END
> <BIOSOLVEIT.HYDE_ESTIMATED_AFFINITY_LOWER_BOUNDARY [nM]>
23.632200

> <BIOSOLVEIT.HYDE_ESTIMATED_AFFINITY_UPPER_BOUNDARY [nM]>
2347.998814

> <BIOSOLVEIT.HYDE_LIGAND_EFFICIENCY range: ++, +, 0, -, -->
0

> <BIOSOLVEIT.HYDE_LIGAND_LIPOPHILIC_EFFICIENCY range: ++, +, 0, -, -->
0

> <BIOSOLVEIT.INTER_CLASH range: red, yellow, green>
green

> <BIOSOLVEIT.INTRA_CLASH range: red, yellow, green>
green

> <BIOSOLVEIT.LOGP>
2.3671

> <BIOSOLVEIT.MOLECULAR WEIGHT>
357.384

> <BIOSOLVEIT.MOLECULE_CHECKSUM>
LTM3LjgzMjE7MS41NzYzNA==

> <BIOSOLVEIT.TORSION_QUALITY range: red, yellow, green, not rotatable>
red

> <BIOSOLVEIT.TPSA>
101.52

$$$$
1LD8_FPP_1
foHydescor03192112133D 1   1.00000     0.00000     0
Hydescorer 1.1.0 fol007
 49 48  0  0  0  0            999 V2000
   14.9548  130.5176   -5.6380 C   0  0  0  0  0  0  0  0  0  0  0  0
   15.4359  131.8869   -5.2325 C   0  0  0  0  0  0  0  0  0  0  0  0
   14.5237  133.0786   -5.4066 C   0  0  0  0  0  0  0  0  0  0  0  0
   16.6865  132.0090   -4.7350 C   0  0  0  0  0  0  0  0  0  0  0  0
   17.6476  130.8608   -4.5537 C   0  0  0  0  0  0  0  0  0  0  0  0
   17.2762  130.0311   -3.3198 C   0  0  0  0  0  0  0  0  0  0  0  0
   18.5137  129.4617   -2.6616 C   0  0  0  0  0  0  0  0  0  0  0  0
   18.3688  128.6867   -1.3730 C   0  0  0  0  0  0  0  0  0  0  0  0
   19.7194  129.6770   -3.2355 C   0  0  0  0  0  0  0  0  0  0  0  0
   21.0333  129.1695   -2.6897 C   0  0  0  0  0  0  0  0  0  0  0  0
   22.0478  130.3061   -2.4994 C   0  0  0  0  0  0  0  0  0  0  0  0
   22.2398  130.6533   -1.0372 C   0  0  0  0  0  0  0  0  0  0  0  0
   21.0262  130.7850   -0.1466 C   0  0  0  0  0  0  0  0  0  0  0  0
   23.4924  130.8266   -0.5587 C   0  0  0  0  0  0  0  0  0  0  0  0
   23.8012  131.1724    0.8719 C   0  0  0  0  0  0  0  0  0  0  0  0
   23.9731  129.9860    1.6090 O   0  0  0  0  0  0  0  0  0  0  0  0
   25.1018  130.2816    2.8549 P   0  0  0  0  0  0  0  0  0  0  0  0
   26.1103  129.1554    2.8878 O   0  0  0  0  0  0  0  0  0  0  0  0
   25.9206  131.7386    2.5851 O   0  5  0  0  0  0  0  0  0  0  0  0
   24.3189  130.3415    4.3644 O   0  0  0  0  0  0  0  0  0  0  0  0
   25.3069  131.2381    5.4214 P   0  0  0  0  0  0  0  0  0  0  0  0
   26.6964  131.3758    4.8407 O   0  0  0  0  0  0  0  0  0  0  0  0
   24.6394  132.7806    5.6040 O   0  5  0  0  0  0  0  0  0  0  0  0
   25.3992  130.5058    6.9449 O   0  5  0  0  0  0  0  0  0  0  0  0
   15.6732  129.8454   -5.4591 H   0  0  0  0  0  0  0  0  0  0  0  0
   14.1385  130.2814   -5.1108 H   0  0  0  0  0  0  0  0  0  0  0  0
   14.7334  130.5173   -6.6132 H   0  0  0  0  0  0  0  0  0  0  0  0
   14.9910  133.9049   -5.0919 H   0  0  0  0  0  0  0  0  0  0  0  0
   14.2857  133.1778   -6.3728 H   0  0  0  0  0  0  0  0  0  0  0  0
   13.6908  132.9420   -4.8704 H   0  0  0  0  0  0  0  0  0  0  0  0
   16.9955  132.9222   -4.4691 H   0  0  0  0  0  0  0  0  0  0  0  0
   18.5728  131.2225   -4.4394 H   0  0  0  0  0  0  0  0  0  0  0  0
   17.6162  130.2757   -5.3639 H   0  0  0  0  0  0  0  0  0  0  0  0
   16.6779  129.2798   -3.5981 H   0  0  0  0  0  0  0  0  0  0  0  0
   16.7958  130.6146   -2.6650 H   0  0  0  0  0  0  0  0  0  0  0  0
   19.2693  128.3786   -1.0664 H   0  0  0  0  0  0  0  0  0  0  0  0
   17.9619  129.2750   -0.6742 H   0  0  0  0  0  0  0  0  0  0  0  0
   17.7792  127.8936   -1.5256 H   0  0  0  0  0  0  0  0  0  0  0  0
   19.7426  130.2100   -4.0813 H   0  0  0  0  0  0  0  0  0  0  0  0
   21.4126  128.5004   -3.3288 H   0  0  0  0  0  0  0  0  0  0  0  0
   20.8691  128.7307   -1.8062 H   0  0  0  0  0  0  0  0  0  0  0  0
   21.7194  131.1170   -2.9838 H   0  0  0  0  0  0  0  0  0  0  0  0
   22.9268  130.0222   -2.8825 H   0  0  0  0  0  0  0  0  0  0  0  0
   21.3174  131.0156    0.7818 H   0  0  0  0  0  0  0  0  0  0  0  0
   20.4313  131.5077   -0.4986 H   0  0  0  0  0  0  0  0  0  0  0  0
   20.5266  129.9189   -0.1338 H   0  0  0  0  0  0  0  0  0  0  0  0
   24.2580  130.7186   -1.1929 H   0  0  0  0  0  0  0  0  0  0  0  0
   23.0450  131.6998    1.2591 H   0  0  0  0  0  0  0  0  0  0  0  0
   24.6403  131.7149    0.9111 H   0  0  0  0  0  0  0  0  0  0  0  0
  1  2  1  0  0  0  0
  2  3  1  0  0  0  0
  2  4  2  0  0  0  0
  4  5  1  0  0  0  0
  5  6  1  0  0  0  0
  6  7  1  0  0  0  0
  7  8  1  0  0  0  0
  7  9  2  0  0  0  0
  9 10  1  0  0  0  0
 10 11  1  0  0  0  0
 11 12  1  0  0  0  0
 12 13  1  0  0  0  0
 12 14  2  0  0  0  0
 14 15  1  0  0  0  0
 15 16  1  0  0  0  0
 16 17  1  0  0  0  0
 17 18  2  0  0  0  0
 17 19  1  0  0  0  0
 17 20  1  0  0  0  0
 20 21  1  0  0  0  0
 21 22  2  0  0  0  0
 21 23  1  0  0  0  0
 21 24  1  0  0  0  0
  1 25  1  0  0  0  0
  1 26  1  0  0  0  0
  1 27  1  0  0  0  0
  3 28  1  0  0  0  0
  3 29  1  0  0  0  0
  3 30  1  0  0  0  0
  4 31  1  0  0  0  0
  5 32  1  0  0  0  0
  5 33  1  0  0  0  0
  6 34  1  0  0  0  0
  6 35  1  0  0  0  0
  8 36  1  0  0  0  0
  8 37  1  0  0  0  0
  8 38  1  0  0  0  0
  9 39  1  0  0  0  0
 10 40  1  0  0  0  0
 10 41  1  0  0  0  0
 11 42  1  0  0  0  0
 11 43  1  0  0  0  0
 13 44  1  0  0  0  0
 13 45  1  0  0  0  0
 13 46  1  0  0  0  0
 14 47  1  0  0  0  0
 15 48  1  0  0  0  0
 15 49  1  0  0  0  0
M  CHG  3  19  -1  23  -1  24  -1
M  END
> <BIOSOLVEIT.HYDE_ESTIMATED_AFFINITY_LOWER_BOUNDARY [nM]>
809208.935580

> <BIOSOLVEIT.HYDE_ESTIMATED_AFFINITY_UPPER_BOUNDARY [nM]>
80399692.171747

> <BIOSOLVEIT.HYDE_LIGAND_EFFICIENCY range: ++, +, 0, -, -->
--

> <BIOSOLVEIT.HYDE_LIGAND_LIPOPHILIC_EFFICIENCY range: ++, +, 0, -, -->
--

> <BIOSOLVEIT.INTER_CLASH range: red, yellow, green>
red

> <BIOSOLVEIT.INTRA_CLASH range: red, yellow, green>
red

> <BIOSOLVEIT.LOGP>
2.7359

> <BIOSOLVEIT.MOLECULAR WEIGHT>
379.304

> <BIOSOLVEIT.MOLECULE_CHECKSUM>
LTExLjk0ODg7MC40OTc4Njc=

> <BIOSOLVEIT.TORSION_QUALITY range: red, yellow, green, not rotatable>
red

> <BIOSOLVEIT.TPSA>
121.78

$$$$
1LD8_FPP_2
foHydescor03192112133D 1   1.00000     0.00000     0
Hydescorer 1.1.0 fol007
 49 48  0  0  0  0            999 V2000
   16.6828  127.8825   -2.6388 C   0  0  0  0  0  0  0  0  0  0  0  0
   16.9809  129.2149   -2.0013 C   0  0  0  0  0  0  0  0  0  0  0  0
   15.8881  130.2535   -1.9007 C   0  0  0  0  0  0  0  0  0  0  0  0
   18.2330  129.4468   -1.5487 C   0  0  0  0  0  0  0  0  0  0  0  0
   19.3678  128.4572   -1.6362 C   0  0  0  0  0  0  0  0  0  0  0  0
   19.9080  128.3753   -3.0681 C   0  0  0  0  0  0  0  0  0  0  0  0
   20.7557  129.5853   -3.3937 C   0  0  0  0  0  0  0  0  0  0  0  0
   20.0731  130.8892   -3.7341 C   0  0  0  0  0  0  0  0  0  0  0  0
   22.1026  129.4628   -3.3885 C   0  0  0  0  0  0  0  0  0  0  0  0
   23.0682  130.5836   -3.6936 C   0  0  0  0  0  0  0  0  0  0  0  0
   23.1955  131.5616   -2.5168 C   0  0  0  0  0  0  0  0  0  0  0  0
   24.0257  130.9834   -1.3888 C   0  0  0  0  0  0  0  0  0  0  0  0
   25.0403  129.9073   -1.6989 C   0  0  0  0  0  0  0  0  0  0  0  0
   23.8488  131.4502   -0.1324 C   0  0  0  0  0  0  0  0  0  0  0  0
   24.6154  130.9512    1.0612 C   0  0  0  0  0  0  0  0  0  0  0  0
   23.8952  129.9078    1.6719 O   0  0  0  0  0  0  0  0  0  0  0  0
   24.7995  129.3308    2.9997 P   0  0  0  0  0  0  0  0  0  0  0  0
   24.6059  127.8359    3.1193 O   0  0  0  0  0  0  0  0  0  0  0  0
   26.4477  129.6514    2.7837 O   0  5  0  0  0  0  0  0  0  0  0  0
   24.2646  130.0556    4.4432 O   0  0  0  0  0  0  0  0  0  0  0  0
   24.8169  131.6656    4.4462 P   0  0  0  0  0  0  0  0  0  0  0  0
   26.2943  131.7075    4.1267 O   0  0  0  0  0  0  0  0  0  0  0  0
   23.9792  132.5243    3.2548 O   0  5  0  0  0  0  0  0  0  0  0  0
   24.5390  132.4071    5.9423 O   0  5  0  0  0  0  0  0  0  0  0  0
   17.5062  127.3152   -2.6260 H   0  0  0  0  0  0  0  0  0  0  0  0
   15.9545  127.4245   -2.1291 H   0  0  0  0  0  0  0  0  0  0  0  0
   16.3899  128.0236   -3.5845 H   0  0  0  0  0  0  0  0  0  0  0  0
   16.2477  131.0737   -1.4556 H   0  0  0  0  0  0  0  0  0  0  0  0
   15.5645  130.4867   -2.8176 H   0  0  0  0  0  0  0  0  0  0  0  0
   15.1291  129.8877   -1.3622 H   0  0  0  0  0  0  0  0  0  0  0  0
   18.4197  130.3343   -1.1274 H   0  0  0  0  0  0  0  0  0  0  0  0
   19.0385  127.5550   -1.3578 H   0  0  0  0  0  0  0  0  0  0  0  0
   20.1036  128.7470   -1.0241 H   0  0  0  0  0  0  0  0  0  0  0  0
   19.1393  128.3323   -3.7063 H   0  0  0  0  0  0  0  0  0  0  0  0
   20.4653  127.5502   -3.1615 H   0  0  0  0  0  0  0  0  0  0  0  0
   20.7635  131.5874   -3.9233 H   0  0  0  0  0  0  0  0  0  0  0  0
   19.4968  130.7629   -4.5415 H   0  0  0  0  0  0  0  0  0  0  0  0
   19.5071  131.1804   -2.9628 H   0  0  0  0  0  0  0  0  0  0  0  0
   22.4865  128.5664   -3.1669 H   0  0  0  0  0  0  0  0  0  0  0  0
   22.7415  131.0832   -4.4959 H   0  0  0  0  0  0  0  0  0  0  0  0
   23.9676  130.1922   -3.8881 H   0  0  0  0  0  0  0  0  0  0  0  0
   22.2812  131.7715   -2.1706 H   0  0  0  0  0  0  0  0  0  0  0  0
   23.6304  132.4019   -2.8405 H   0  0  0  0  0  0  0  0  0  0  0  0
   25.5027  129.6323   -0.8559 H   0  0  0  0  0  0  0  0  0  0  0  0
   24.5762  129.1164   -2.0978 H   0  0  0  0  0  0  0  0  0  0  0  0
   25.7136  130.2611   -2.3481 H   0  0  0  0  0  0  0  0  0  0  0  0
   23.1687  132.1689    0.0116 H   0  0  0  0  0  0  0  0  0  0  0  0
   24.7403  131.6981    1.7143 H   0  0  0  0  0  0  0  0  0  0  0  0
   25.5092  130.6128    0.7669 H   0  0  0  0  0  0  0  0  0  0  0  0
  1  2  1  0  0  0  0
  2  3  1  0  0  0  0
  2  4  2  0  0  0  0
  4  5  1  0  0  0  0
  5  6  1  0  0  0  0
  6  7  1  0  0  0  0
  7  8  1  0  0  0  0
  7  9  2  0  0  0  0
  9 10  1  0  0  0  0
 10 11  1  0  0  0  0
 11 12  1  0  0  0  0
 12 13  1  0  0  0  0
 12 14  2  0  0  0  0
 14 15  1  0  0  0  0
 15 16  1  0  0  0  0
 16 17  1  0  0  0  0
 17 18  2  0  0  0  0
 17 19  1  0  0  0  0
 17 20  1  0  0  0  0
 20 21  1  0  0  0  0
 21 22  2  0  0  0  0
 21 23  1  0  0  0  0
 21 24  1  0  0  0  0
  1 25  1  0  0  0  0
  1 26  1  0  0  0  0
  1 27  1  0  0  0  0
  3 28  1  0  0  0  0
  3 29  1  0  0  0  0
  3 30  1  0  0  0  0
  4 31  1  0  0  0  0
  5 32  1  0  0  0  0
  5 33  1  0  0  0  0
  6 34  1  0  0  0  0
  6 35  1  0  0  0  0
  8 36  1  0  0  0  0
  8 37  1  0  0  0  0
  8 38  1  0  0  0  0
  9 39  1  0  0  0  0
 10 40  1  0  0  0  0
 10 41  1  0  0  0  0
 11 42  1  0  0  0  0
 11 43  1  0  0  0  0
 13 44  1  0  0  0  0
 13 45  1  0  0  0  0
 13 46  1  0  0  0  0
 14 47  1  0  0  0  0
 15 48  1  0  0  0  0
 15 49  1  0  0  0  0
M  CHG  3  19  -1  23  -1  24  -1
M  END
> <BIOSOLVEIT.HYDE_ESTIMATED_AFFINITY_LOWER_BOUNDARY [nM]>
11704.336716

> <BIOSOLVEIT.HYDE_ESTIMATED_AFFINITY_UPPER_BOUNDARY [nM]>
1162895.054265

> <BIOSOLVEIT.HYDE_LIGAND_EFFICIENCY range: ++, +, 0, -, -->
-

> <BIOSOLVEIT.HYDE_LIGAND_LIPOPHILIC_EFFICIENCY range: ++, +, 0, -, -->
--

> <BIOSOLVEIT.INTER_CLASH range: red, yellow, green>
yellow

> <BIOSOLVEIT.INTRA_CLASH range: red, yellow, green>
red

> <BIOSOLVEIT.LOGP>
2.7359

> <BIOSOLVEIT.MOLECULAR WEIGHT>
379.304

> <BIOSOLVEIT.MOLECULE_CHECKSUM>
LTIyLjQ0OTk7MC45MzU0MTM=

> <BIOSOLVEIT.TORSION_QUALITY range: red, yellow, green, not rotatable>
red

> <BIOSOLVEIT.TPSA>
121.78

$$$$
1LD8_FPP_3
foHydescor03192112133D 1   1.00000     0.00000     0
Hydescorer 1.1.0 fol007
 49 48  0  0  0  0            999 V2000
   16.1081  131.5010   -2.1328 C   0  0  0  0  0  0  0  0  0  0  0  0
   15.9965  130.0979   -2.6707 C   0  0  0  0  0  0  0  0  0  0  0  0
   15.0481  129.8106   -3.8111 C   0  0  0  0  0  0  0  0  0  0  0  0
   16.7448  129.1278   -2.1001 C   0  0  0  0  0  0  0  0  0  0  0  0
   17.6951  129.3499   -0.9501 C   0  0  0  0  0  0  0  0  0  0  0  0
   18.8653  128.3623   -1.0138 C   0  0  0  0  0  0  0  0  0  0  0  0
   19.6665  128.5582   -2.2821 C   0  0  0  0  0  0  0  0  0  0  0  0
   19.1635  127.9483   -3.5693 C   0  0  0  0  0  0  0  0  0  0  0  0
   20.8215  129.2597   -2.2260 C   0  0  0  0  0  0  0  0  0  0  0  0
   21.7193  129.5320   -3.4099 C   0  0  0  0  0  0  0  0  0  0  0  0
   22.2994  130.9529   -3.3696 C   0  0  0  0  0  0  0  0  0  0  0  0
   23.2604  131.1384   -2.2129 C   0  0  0  0  0  0  0  0  0  0  0  0
   24.7472  131.0589   -2.4715 C   0  0  0  0  0  0  0  0  0  0  0  0
   22.7678  131.3819   -0.9775 C   0  0  0  0  0  0  0  0  0  0  0  0
   23.6260  131.5819    0.2409 C   0  0  0  0  0  0  0  0  0  0  0  0
   23.4803  130.4750    1.0975 O   0  0  0  0  0  0  0  0  0  0  0  0
   24.7464  130.5057    2.2419 P   0  0  0  0  0  0  0  0  0  0  0  0
   25.2541  129.0979    2.4577 O   0  0  0  0  0  0  0  0  0  0  0  0
   26.0257  131.4680    1.6907 O   0  5  0  0  0  0  0  0  0  0  0  0
   24.1862  131.1056    3.7323 O   0  0  0  0  0  0  0  0  0  0  0  0
   24.9323  132.6130    3.9938 P   0  0  0  0  0  0  0  0  0  0  0  0
   26.4271  132.4341    4.1353 O   0  0  0  0  0  0  0  0  0  0  0  0
   24.6281  133.6032    2.6576 O   0  5  0  0  0  0  0  0  0  0  0  0
   24.3183  133.3700    5.3779 O   0  5  0  0  0  0  0  0  0  0  0  0
   16.7735  131.5200   -1.3866 H   0  0  0  0  0  0  0  0  0  0  0  0
   16.4084  132.1150   -2.8629 H   0  0  0  0  0  0  0  0  0  0  0  0
   15.2165  131.7993   -1.7921 H   0  0  0  0  0  0  0  0  0  0  0  0
   15.0940  128.8397   -4.0463 H   0  0  0  0  0  0  0  0  0  0  0  0
   14.1153  130.0432   -3.5356 H   0  0  0  0  0  0  0  0  0  0  0  0
   15.3073  130.3589   -4.6063 H   0  0  0  0  0  0  0  0  0  0  0  0
   16.6630  128.2004   -2.4649 H   0  0  0  0  0  0  0  0  0  0  0  0
   17.2036  129.2210   -0.0888 H   0  0  0  0  0  0  0  0  0  0  0  0
   18.0511  130.2834   -0.9942 H   0  0  0  0  0  0  0  0  0  0  0  0
   18.5075  127.4287   -0.9931 H   0  0  0  0  0  0  0  0  0  0  0  0
   19.4609  128.5086   -0.2241 H   0  0  0  0  0  0  0  0  0  0  0  0
   19.7981  128.1649   -4.3111 H   0  0  0  0  0  0  0  0  0  0  0  0
   19.0989  126.9559   -3.4650 H   0  0  0  0  0  0  0  0  0  0  0  0
   18.2605  128.3205   -3.7839 H   0  0  0  0  0  0  0  0  0  0  0  0
   21.1009  129.6240   -1.3377 H   0  0  0  0  0  0  0  0  0  0  0  0
   21.1890  129.4225   -4.2505 H   0  0  0  0  0  0  0  0  0  0  0  0
   22.4726  128.8743   -3.4030 H   0  0  0  0  0  0  0  0  0  0  0  0
   21.5484  131.6061   -3.2737 H   0  0  0  0  0  0  0  0  0  0  0  0
   22.7861  131.1278   -4.2254 H   0  0  0  0  0  0  0  0  0  0  0  0
   25.2426  131.2011   -1.6146 H   0  0  0  0  0  0  0  0  0  0  0  0
   24.9734  130.1578   -2.8417 H   0  0  0  0  0  0  0  0  0  0  0  0
   25.0094  131.7649   -3.1293 H   0  0  0  0  0  0  0  0  0  0  0  0
   21.7751  131.4318   -0.8678 H   0  0  0  0  0  0  0  0  0  0  0  0
   23.3409  132.4135    0.7178 H   0  0  0  0  0  0  0  0  0  0  0  0
   24.5833  131.6675   -0.0349 H   0  0  0  0  0  0  0  0  0  0  0  0
  1  2  1  0  0  0  0
  2  3  1  0  0  0  0
  2  4  2  0  0  0  0
  4  5  1  0  0  0  0
  5  6  1  0  0  0  0
  6  7  1  0  0  0  0
  7  8  1  0  0  0  0
  7  9  2  0  0  0  0
  9 10  1  0  0  0  0
 10 11  1  0  0  0  0
 11 12  1  0  0  0  0
 12 13  1  0  0  0  0
 12 14  2  0  0  0  0
 14 15  1  0  0  0  0
 15 16  1  0  0  0  0
 16 17  1  0  0  0  0
 17 18  2  0  0  0  0
 17 19  1  0  0  0  0
 17 20  1  0  0  0  0
 20 21  1  0  0  0  0
 21 22  2  0  0  0  0
 21 23  1  0  0  0  0
 21 24  1  0  0  0  0
  1 25  1  0  0  0  0
  1 26  1  0  0  0  0
  1 27  1  0  0  0  0
  3 28  1  0  0  0  0
  3 29  1  0  0  0  0
  3 30  1  0  0  0  0
  4 31  1  0  0  0  0
  5 32  1  0  0  0  0
  5 33  1  0  0  0  0
  6 34  1  0  0  0  0
  6 35  1  0  0  0  0
  8 36  1  0  0  0  0
  8 37  1  0  0  0  0
  8 38  1  0  0  0  0
  9 39  1  0  0  0  0
 10 40  1  0  0  0  0
 10 41  1  0  0  0  0
 11 42  1  0  0  0  0
 11 43  1  0  0  0  0
 13 44  1  0  0  0  0
 13 45  1  0  0  0  0
 13 46  1  0  0  0  0
 14 47  1  0  0  0  0
 15 48  1  0  0  0  0
 15 49  1  0  0  0  0
M  CHG  3  19  -1  23  -1  24  -1
M  END
> <BIOSOLVEIT.HYDE_ESTIMATED_AFFINITY_LOWER_BOUNDARY [nM]>
3496.589905

> <BIOSOLVEIT.HYDE_ESTIMATED_AFFINITY_UPPER_BOUNDARY [nM]>
347406.880550

> <BIOSOLVEIT.HYDE_LIGAND_EFFICIENCY range: ++, +, 0, -, -->
-

> <BIOSOLVEIT.HYDE_LIGAND_LIPOPHILIC_EFFICIENCY range: ++, +, 0, -, -->
--

> <BIOSOLVEIT.INTER_CLASH range: red, yellow, green>
green

> <BIOSOLVEIT.INTRA_CLASH range: red, yellow, green>
yellow

> <BIOSOLVEIT.LOGP>
2.7359

> <BIOSOLVEIT.MOLECULAR WEIGHT>
379.304

> <BIOSOLVEIT.MOLECULE_CHECKSUM>
LTI1LjQ0NDk7MS4wNjAyMQ==

> <BIOSOLVEIT.TORSION_QUALITY range: red, yellow, green, not rotatable>
green

> <BIOSOLVEIT.TPSA>
121.78

$$$$
