1JCQ_739_1
foHydescor03192112213D 1   1.00000     0.00000     0
Hydescorer 1.1.0 fol007
 75 75  0  0  0  0            999 V2000
   20.2112  137.2548    5.9294 C   0  0  0  0  0  0  0  0  0  0  0  0
   20.1930  135.9825    5.0815 C   0  0  0  0  0  0  0  0  0  0  0  0
   21.2299  136.0183    4.0077 C   0  0  2  0  0  0  0  0  0  0  0  0
   20.9904  137.1735    3.0162 C   0  0  0  0  0  0  0  0  0  0  0  0
   21.5382  134.7585    3.3047 C   0  0  2  0  0  0  0  0  0  0  0  0
   20.5490  133.6400    3.3296 C   0  0  0  0  0  0  0  0  0  0  0  0
   20.6952  132.8607    2.2528 O   0  0  0  0  0  0  0  0  0  0  0  0
   20.2214  133.3057    1.0100 C   0  0  2  0  0  0  0  0  0  0  0  0
   18.7755  133.2889    1.0954 C   0  0  0  0  0  0  0  0  0  0  0  0
   17.9660  134.4869    0.9208 C   0  0  0  0  0  0  0  0  0  0  0  0
   17.2699  134.6748   -0.2683 C   0  0  0  0  0  0  0  0  0  0  0  0
   16.4991  135.8213   -0.4287 C   0  0  0  0  0  0  0  0  0  0  0  0
   16.4251  136.7680    0.5869 C   0  0  0  0  0  0  0  0  0  0  0  0
   17.1253  136.5718    1.7730 C   0  0  0  0  0  0  0  0  0  0  0  0
   17.8988  135.4284    1.9429 C   0  0  0  0  0  0  0  0  0  0  0  0
   20.8379  132.4780   -0.0701 C   0  0  0  0  0  0  0  0  0  0  0  0
   21.1360  131.3074    0.3744 O   0  0  0  0  0  0  0  0  0  0  0  0
   21.1215  132.7977   -1.3916 N   0  0  0  0  0  0  0  0  0  0  0  0
   21.3959  133.1067   -2.6693 C   0  0  1  0  0  0  0  0  0  0  0  0
   20.3657  133.6627   -3.5414 C   0  0  0  0  0  0  0  0  0  0  0  0
   18.9549  133.8717   -3.2841 C   0  0  0  0  0  0  0  0  0  0  0  0
   17.8426  132.5605   -3.3039 S   0  0  0  0  0  0  0  0  0  0  0  0
   18.0256  131.4992   -4.7244 C   0  0  0  0  0  0  0  0  0  0  0  0
   16.4598  132.7650   -2.8553 O   0  0  0  0  0  0  0  0  0  0  0  0
   18.4046  131.6025   -2.1450 O   0  0  0  0  0  0  0  0  0  0  0  0
   22.6317  133.9944   -2.8941 C   0  0  0  0  0  0  0  0  0  0  0  0
   22.7746  134.3373   -4.0624 O   0  0  0  0  0  0  0  0  0  0  0  0
   23.4797  134.3640   -1.9087 O   0  0  0  0  0  0  0  0  0  0  0  0
   22.9120  134.3973    3.4039 N   0  3  0  0  0  0  0  0  0  0  0  0
   23.8368  135.3923    3.7948 C   0  0  0  0  0  0  0  0  0  0  0  0
   25.0711  135.0196    4.5073 C   0  0  2  0  0  0  0  0  0  0  0  0
   25.6877  133.8879    3.7432 N   0  3  0  0  0  0  0  0  0  0  0  0
   24.9320  134.4611    5.8953 C   0  0  0  0  0  0  0  0  0  0  0  0
   23.3917  134.8585    6.6281 S   0  0  0  0  0  0  0  0  0  0  0  0
   19.5057  137.1948    6.6357 H   0  0  0  0  0  0  0  0  0  0  0  0
   21.1076  137.3547    6.3613 H   0  0  0  0  0  0  0  0  0  0  0  0
   20.0322  138.0469    5.3460 H   0  0  0  0  0  0  0  0  0  0  0  0
   19.2918  135.8880    4.6584 H   0  0  0  0  0  0  0  0  0  0  0  0
   20.3672  135.1959    5.6739 H   0  0  0  0  0  0  0  0  0  0  0  0
   22.0775  136.2600    4.4802 H   0  0  0  0  0  0  0  0  0  0  0  0
   21.7030  137.1639    2.3148 H   0  0  0  0  0  0  0  0  0  0  0  0
   20.0956  137.0616    2.5840 H   0  0  0  0  0  0  0  0  0  0  0  0
   21.0172  138.0446    3.5066 H   0  0  0  0  0  0  0  0  0  0  0  0
   21.4809  135.0488    2.3495 H   0  0  0  0  0  0  0  0  0  0  0  0
   19.6238  134.0193    3.3380 H   0  0  0  0  0  0  0  0  0  0  0  0
   20.6924  133.0924    4.1539 H   0  0  0  0  0  0  0  0  0  0  0  0
   20.5160  134.2530    0.8843 H   0  0  0  0  0  0  0  0  0  0  0  0
   18.5553  132.9353    2.0045 H   0  0  0  0  0  0  0  0  0  0  0  0
   18.4641  132.6401    0.4010 H   0  0  0  0  0  0  0  0  0  0  0  0
   17.3227  133.9941   -0.9989 H   0  0  0  0  0  0  0  0  0  0  0  0
   15.9949  135.9658   -1.2801 H   0  0  0  0  0  0  0  0  0  0  0  0
   15.8687  137.5899    0.4647 H   0  0  0  0  0  0  0  0  0  0  0  0
   17.0725  137.2528    2.5034 H   0  0  0  0  0  0  0  0  0  0  0  0
   18.4033  135.2840    2.7941 H   0  0  0  0  0  0  0  0  0  0  0  0
   21.0435  133.7703   -1.1730 H   0  0  0  0  0  0  0  0  0  0  0  0
   21.6359  132.2326   -3.0918 H   0  0  0  0  0  0  0  0  0  0  0  0
   20.3842  133.0751   -4.3503 H   0  0  0  0  0  0  0  0  0  0  0  0
   20.7096  134.5706   -3.7811 H   0  0  0  0  0  0  0  0  0  0  0  0
   18.6352  134.5250   -3.9704 H   0  0  0  0  0  0  0  0  0  0  0  0
   18.8905  134.2844   -2.3756 H   0  0  0  0  0  0  0  0  0  0  0  0
   17.3536  130.7601   -4.6771 H   0  0  0  0  0  0  0  0  0  0  0  0
   17.8785  132.0306   -5.5587 H   0  0  0  0  0  0  0  0  0  0  0  0
   18.9473  131.1115   -4.7343 H   0  0  0  0  0  0  0  0  0  0  0  0
   23.1969  134.0643    2.5051 H   0  0  0  0  0  0  0  0  0  0  0  0
   22.9761  133.6545    4.0703 H   0  0  0  0  0  0  0  0  0  0  0  0
   23.3424  136.0271    4.3886 H   0  0  0  0  0  0  0  0  0  0  0  0
   24.1184  135.8668    2.9608 H   0  0  0  0  0  0  0  0  0  0  0  0
   25.6993  135.7976    4.5200 H   0  0  0  0  0  0  0  0  0  0  0  0
   26.6836  133.9776    3.7604 H   0  0  0  0  0  0  0  0  0  0  0  0
   25.4240  133.0194    4.1630 H   0  0  0  0  0  0  0  0  0  0  0  0
   25.3672  133.9112    2.7962 H   0  0  0  0  0  0  0  0  0  0  0  0
   25.6640  134.8339    6.4656 H   0  0  0  0  0  0  0  0  0  0  0  0
   25.0184  133.4659    5.8505 H   0  0  0  0  0  0  0  0  0  0  0  0
   22.6721  134.3007    6.2147 H   0  0  0  0  0  0  0  0  0  0  0  0
   23.5697  133.7991   -1.0885 H   0  0  0  0  0  0  0  0  0  0  0  0
  1  2  1  0  0  0  0
  2  3  1  0  0  0  0
  3  4  1  0  0  0  0
  3  5  1  0  0  0  0
  5  6  1  0  0  0  0
  6  7  1  0  0  0  0
  7  8  1  0  0  0  0
  8  9  1  0  0  0  0
  9 10  1  0  0  0  0
 10 11  2  0  0  0  0
 11 12  1  0  0  0  0
 12 13  2  0  0  0  0
 13 14  1  0  0  0  0
 14 15  2  0  0  0  0
  8 16  1  0  0  0  0
 16 17  2  0  0  0  0
 16 18  1  0  0  0  0
 18 19  1  0  0  0  0
 19 20  1  0  0  0  0
 20 21  1  0  0  0  0
 21 22  1  0  0  0  0
 22 23  1  0  0  0  0
 22 24  2  0  0  0  0
 22 25  2  0  0  0  0
 19 26  1  0  0  0  0
 26 27  2  0  0  0  0
 26 28  1  0  0  0  0
  5 29  1  0  0  0  0
 29 30  1  0  0  0  0
 30 31  1  0  0  0  0
 31 32  1  0  0  0  0
 31 33  1  0  0  0  0
 33 34  1  0  0  0  0
 15 10  1  0  0  0  0
  1 35  1  0  0  0  0
  1 36  1  0  0  0  0
  1 37  1  0  0  0  0
  2 38  1  0  0  0  0
  2 39  1  0  0  0  0
  3 40  1  0  0  0  0
  4 41  1  0  0  0  0
  4 42  1  0  0  0  0
  4 43  1  0  0  0  0
  5 44  1  0  0  0  0
  6 45  1  0  0  0  0
  6 46  1  0  0  0  0
  8 47  1  0  0  0  0
  9 48  1  0  0  0  0
  9 49  1  0  0  0  0
 11 50  1  0  0  0  0
 12 51  1  0  0  0  0
 13 52  1  0  0  0  0
 14 53  1  0  0  0  0
 15 54  1  0  0  0  0
 18 55  1  0  0  0  0
 19 56  1  0  0  0  0
 20 57  1  0  0  0  0
 20 58  1  0  0  0  0
 21 59  1  0  0  0  0
 21 60  1  0  0  0  0
 23 61  1  0  0  0  0
 23 62  1  0  0  0  0
 23 63  1  0  0  0  0
 29 64  1  0  0  0  0
 29 65  1  0  0  0  0
 30 66  1  0  0  0  0
 30 67  1  0  0  0  0
 31 68  1  0  0  0  0
 32 69  1  0  0  0  0
 32 70  1  0  0  0  0
 32 71  1  0  0  0  0
 33 72  1  0  0  0  0
 33 73  1  0  0  0  0
 34 74  1  0  0  0  0
 28 75  1  0  0  0  0
M  CHG  2  29   1  32   1
M  END
> <BIOSOLVEIT.HYDE_ESTIMATED_AFFINITY_LOWER_BOUNDARY [nM]>
8535743177.605305

> <BIOSOLVEIT.HYDE_ESTIMATED_AFFINITY_UPPER_BOUNDARY [nM]>
848076552002.795044

> <BIOSOLVEIT.HYDE_LIGAND_EFFICIENCY range: ++, +, 0, -, -->
--

> <BIOSOLVEIT.HYDE_LIGAND_LIPOPHILIC_EFFICIENCY range: ++, +, 0, -, -->
--

> <BIOSOLVEIT.INTER_CLASH range: red, yellow, green>
green

> <BIOSOLVEIT.INTRA_CLASH range: red, yellow, green>
green

> <BIOSOLVEIT.LOGP>
0.1676

> <BIOSOLVEIT.MOLECULAR WEIGHT>
519.722

> <BIOSOLVEIT.MOLECULE_CHECKSUM>
MTEuMDE1NTsw

> <BIOSOLVEIT.TORSION_QUALITY range: red, yellow, green, not rotatable>
red

> <BIOSOLVEIT.TPSA>
154.02

$$$$
1JCQ_739_2
foHydescor03192112213D 1   1.00000     0.00000     0
Hydescorer 1.1.0 fol007
 75 75  0  0  0  0            999 V2000
   17.9177  133.5918   -3.3725 C   0  0  0  0  0  0  0  0  0  0  0  0
   18.9798  134.4119   -4.1058 C   0  0  0  0  0  0  0  0  0  0  0  0
   19.7648  135.2667   -3.1666 C   0  0  2  0  0  0  0  0  0  0  0  0
   18.8528  136.1640   -2.3078 C   0  0  0  0  0  0  0  0  0  0  0  0
   20.9066  136.0237   -3.7139 C   0  0  2  0  0  0  0  0  0  0  0  0
   20.7149  136.8695   -4.9296 C   0  0  0  0  0  0  0  0  0  0  0  0
   20.6646  138.1638   -4.5974 O   0  0  0  0  0  0  0  0  0  0  0  0
   20.6312  139.1346   -5.6090 C   0  0  2  0  0  0  0  0  0  0  0  0
   20.4303  140.4068   -4.9460 C   0  0  0  0  0  0  0  0  0  0  0  0
   21.3359  140.9085   -3.9217 C   0  0  0  0  0  0  0  0  0  0  0  0
   22.7095  140.8173   -4.1189 C   0  0  0  0  0  0  0  0  0  0  0  0
   23.5688  141.2978   -3.1365 C   0  0  0  0  0  0  0  0  0  0  0  0
   23.0612  141.8627   -1.9719 C   0  0  0  0  0  0  0  0  0  0  0  0
   21.6856  141.9496   -1.7830 C   0  0  0  0  0  0  0  0  0  0  0  0
   20.8182  141.4717   -2.7597 C   0  0  0  0  0  0  0  0  0  0  0  0
   19.6105  138.7416   -6.6266 C   0  0  0  0  0  0  0  0  0  0  0  0
   20.1612  138.5858   -7.7795 O   0  0  0  0  0  0  0  0  0  0  0  0
   18.2409  138.5527   -6.4943 N   0  0  0  0  0  0  0  0  0  0  0  0
   16.9166  138.3701   -6.3665 C   0  0  1  0  0  0  0  0  0  0  0  0
   16.3829  137.4325   -5.3832 C   0  0  0  0  0  0  0  0  0  0  0  0
   15.7862  136.1271   -5.5838 C   0  0  0  0  0  0  0  0  0  0  0  0
   14.9801  135.7326   -7.0506 S   0  0  0  0  0  0  0  0  0  0  0  0
   14.9216  133.9810   -7.3765 C   0  0  0  0  0  0  0  0  0  0  0  0
   15.1589  136.5795   -8.2363 O   0  0  0  0  0  0  0  0  0  0  0  0
   13.4408  136.0187   -6.6961 O   0  0  0  0  0  0  0  0  0  0  0  0
   16.0768  139.6476   -6.1977 C   0  0  0  0  0  0  0  0  0  0  0  0
   15.1545  139.7296   -7.0013 O   0  0  0  0  0  0  0  0  0  0  0  0
   16.3235  140.5898   -5.2606 O   0  0  0  0  0  0  0  0  0  0  0  0
   22.1338  135.3071   -3.6226 N   0  3  0  0  0  0  0  0  0  0  0  0
   22.7789  135.2461   -2.3663 C   0  0  0  0  0  0  0  0  0  0  0  0
   21.9901  135.3033   -1.1235 C   0  0  2  0  0  0  0  0  0  0  0  0
   22.8783  135.8977   -0.0733 N   0  3  0  0  0  0  0  0  0  0  0  0
   21.5595  134.0003   -0.5116 C   0  0  0  0  0  0  0  0  0  0  0  0
   21.1084  132.8098   -1.7144 S   0  0  0  0  0  0  0  0  0  0  0  0
   17.4137  133.0336   -4.0316 H   0  0  0  0  0  0  0  0  0  0  0  0
   18.3603  132.9970   -2.7015 H   0  0  0  0  0  0  0  0  0  0  0  0
   17.2845  134.2086   -2.9049 H   0  0  0  0  0  0  0  0  0  0  0  0
   18.5287  134.9990   -4.7780 H   0  0  0  0  0  0  0  0  0  0  0  0
   19.6045  133.7875   -4.5746 H   0  0  0  0  0  0  0  0  0  0  0  0
   20.1729  134.6240   -2.5182 H   0  0  0  0  0  0  0  0  0  0  0  0
   19.4138  136.7192   -1.6939 H   0  0  0  0  0  0  0  0  0  0  0  0
   18.3178  136.7630   -2.9037 H   0  0  0  0  0  0  0  0  0  0  0  0
   18.2347  135.5921   -1.7684 H   0  0  0  0  0  0  0  0  0  0  0  0
   21.0347  136.7211   -3.0088 H   0  0  0  0  0  0  0  0  0  0  0  0
   19.8592  136.6116   -5.3782 H   0  0  0  0  0  0  0  0  0  0  0  0
   21.4786  136.7206   -5.5578 H   0  0  0  0  0  0  0  0  0  0  0  0
   21.5262  139.1525   -6.0547 H   0  0  0  0  0  0  0  0  0  0  0  0
   19.5277  140.3572   -4.5183 H   0  0  0  0  0  0  0  0  0  0  0  0
   20.4190  141.0976   -5.6689 H   0  0  0  0  0  0  0  0  0  0  0  0
   23.0748  140.4113   -4.9566 H   0  0  0  0  0  0  0  0  0  0  0  0
   24.5581  141.2367   -3.2687 H   0  0  0  0  0  0  0  0  0  0  0  0
   23.6850  142.2066   -1.2699 H   0  0  0  0  0  0  0  0  0  0  0  0
   21.3205  142.3555   -0.9452 H   0  0  0  0  0  0  0  0  0  0  0  0
   19.8288  141.5324   -2.6274 H   0  0  0  0  0  0  0  0  0  0  0  0
   18.2810  137.8011   -7.1526 H   0  0  0  0  0  0  0  0  0  0  0  0
   16.6295  137.9972   -7.2488 H   0  0  0  0  0  0  0  0  0  0  0  0
   15.6783  137.9542   -4.9024 H   0  0  0  0  0  0  0  0  0  0  0  0
   17.1501  137.2604   -4.7652 H   0  0  0  0  0  0  0  0  0  0  0  0
   15.1168  136.0057   -4.8509 H   0  0  0  0  0  0  0  0  0  0  0  0
   16.5227  135.4593   -5.4766 H   0  0  0  0  0  0  0  0  0  0  0  0
   14.4426  133.8183   -8.2391 H   0  0  0  0  0  0  0  0  0  0  0  0
   15.8530  133.6225   -7.4397 H   0  0  0  0  0  0  0  0  0  0  0  0
   14.4366  133.5198   -6.6336 H   0  0  0  0  0  0  0  0  0  0  0  0
   22.7733  135.7308   -4.2641 H   0  0  0  0  0  0  0  0  0  0  0  0
   21.9500  134.3663   -3.9077 H   0  0  0  0  0  0  0  0  0  0  0  0
   23.4208  136.0122   -2.3350 H   0  0  0  0  0  0  0  0  0  0  0  0
   23.2867  134.3848   -2.3452 H   0  0  0  0  0  0  0  0  0  0  0  0
   21.1919  135.8902   -1.2594 H   0  0  0  0  0  0  0  0  0  0  0  0
   22.3800  135.9541    0.7918 H   0  0  0  0  0  0  0  0  0  0  0  0
   23.6869  135.3213    0.0447 H   0  0  0  0  0  0  0  0  0  0  0  0
   23.1609  136.8145   -0.3557 H   0  0  0  0  0  0  0  0  0  0  0  0
   20.7731  134.1696    0.0825 H   0  0  0  0  0  0  0  0  0  0  0  0
   22.3157  133.6361    0.0321 H   0  0  0  0  0  0  0  0  0  0  0  0
   21.9089  132.5718   -2.2645 H   0  0  0  0  0  0  0  0  0  0  0  0
   15.7731  141.4243   -5.2335 H   0  0  0  0  0  0  0  0  0  0  0  0
  1  2  1  0  0  0  0
  2  3  1  0  0  0  0
  3  4  1  0  0  0  0
  3  5  1  0  0  0  0
  5  6  1  0  0  0  0
  6  7  1  0  0  0  0
  7  8  1  0  0  0  0
  8  9  1  0  0  0  0
  9 10  1  0  0  0  0
 10 11  2  0  0  0  0
 11 12  1  0  0  0  0
 12 13  2  0  0  0  0
 13 14  1  0  0  0  0
 14 15  2  0  0  0  0
  8 16  1  0  0  0  0
 16 17  2  0  0  0  0
 16 18  1  0  0  0  0
 18 19  1  0  0  0  0
 19 20  1  0  0  0  0
 20 21  1  0  0  0  0
 21 22  1  0  0  0  0
 22 23  1  0  0  0  0
 22 24  2  0  0  0  0
 22 25  2  0  0  0  0
 19 26  1  0  0  0  0
 26 27  2  0  0  0  0
 26 28  1  0  0  0  0
  5 29  1  0  0  0  0
 29 30  1  0  0  0  0
 30 31  1  0  0  0  0
 31 32  1  0  0  0  0
 31 33  1  0  0  0  0
 33 34  1  0  0  0  0
 15 10  1  0  0  0  0
  1 35  1  0  0  0  0
  1 36  1  0  0  0  0
  1 37  1  0  0  0  0
  2 38  1  0  0  0  0
  2 39  1  0  0  0  0
  3 40  1  0  0  0  0
  4 41  1  0  0  0  0
  4 42  1  0  0  0  0
  4 43  1  0  0  0  0
  5 44  1  0  0  0  0
  6 45  1  0  0  0  0
  6 46  1  0  0  0  0
  8 47  1  0  0  0  0
  9 48  1  0  0  0  0
  9 49  1  0  0  0  0
 11 50  1  0  0  0  0
 12 51  1  0  0  0  0
 13 52  1  0  0  0  0
 14 53  1  0  0  0  0
 15 54  1  0  0  0  0
 18 55  1  0  0  0  0
 19 56  1  0  0  0  0
 20 57  1  0  0  0  0
 20 58  1  0  0  0  0
 21 59  1  0  0  0  0
 21 60  1  0  0  0  0
 23 61  1  0  0  0  0
 23 62  1  0  0  0  0
 23 63  1  0  0  0  0
 29 64  1  0  0  0  0
 29 65  1  0  0  0  0
 30 66  1  0  0  0  0
 30 67  1  0  0  0  0
 31 68  1  0  0  0  0
 32 69  1  0  0  0  0
 32 70  1  0  0  0  0
 32 71  1  0  0  0  0
 33 72  1  0  0  0  0
 33 73  1  0  0  0  0
 34 74  1  0  0  0  0
 28 75  1  0  0  0  0
M  CHG  2  29   1  32   1
M  END
> <BIOSOLVEIT.HYDE_ESTIMATED_AFFINITY_LOWER_BOUNDARY [nM]>
14436.054064

> <BIOSOLVEIT.HYDE_ESTIMATED_AFFINITY_UPPER_BOUNDARY [nM]>
1434307.323954

> <BIOSOLVEIT.HYDE_LIGAND_EFFICIENCY range: ++, +, 0, -, -->
--

> <BIOSOLVEIT.HYDE_LIGAND_LIPOPHILIC_EFFICIENCY range: ++, +, 0, -, -->
0

> <BIOSOLVEIT.INTER_CLASH range: red, yellow, green>
green

> <BIOSOLVEIT.INTRA_CLASH range: red, yellow, green>
yellow

> <BIOSOLVEIT.LOGP>
0.1676

> <BIOSOLVEIT.MOLECULAR WEIGHT>
519.722

> <BIOSOLVEIT.MOLECULE_CHECKSUM>
LTIxLjkyOTk7MC42NDQ5OTc=

> <BIOSOLVEIT.TORSION_QUALITY range: red, yellow, green, not rotatable>
red

> <BIOSOLVEIT.TPSA>
154.02

$$$$
1JCQ_739_3
foHydescor03192112213D 1   1.00000     0.00000     0
Hydescorer 1.1.0 fol007
 75 75  0  0  0  0            999 V2000
   21.9740  137.0774    1.4169 C   0  0  0  0  0  0  0  0  0  0  0  0
   22.0071  137.1916    2.9415 C   0  0  0  0  0  0  0  0  0  0  0  0
   21.3171  136.0415    3.5975 C   0  0  2  0  0  0  0  0  0  0  0  0
   21.3650  136.1436    5.1343 C   0  0  0  0  0  0  0  0  0  0  0  0
   21.6536  134.6813    3.1360 C   0  0  2  0  0  0  0  0  0  0  0  0
   20.5934  133.6300    3.1060 C   0  0  0  0  0  0  0  0  0  0  0  0
   20.7403  132.8461    2.0329 O   0  0  0  0  0  0  0  0  0  0  0  0
   20.4441  133.3561    0.7604 C   0  0  2  0  0  0  0  0  0  0  0  0
   19.0519  133.7547    0.7952 C   0  0  0  0  0  0  0  0  0  0  0  0
   18.6365  135.1505    0.8182 C   0  0  0  0  0  0  0  0  0  0  0  0
   18.9295  135.9692   -0.2670 C   0  0  0  0  0  0  0  0  0  0  0  0
   18.5305  137.3013   -0.2385 C   0  0  0  0  0  0  0  0  0  0  0  0
   17.8469  137.8083    0.8609 C   0  0  0  0  0  0  0  0  0  0  0  0
   17.5584  136.9818    1.9424 C   0  0  0  0  0  0  0  0  0  0  0  0
   17.9534  135.6482    1.9231 C   0  0  0  0  0  0  0  0  0  0  0  0
   20.8250  132.3437   -0.2699 C   0  0  0  0  0  0  0  0  0  0  0  0
   21.2459  131.2653    0.2926 O   0  0  0  0  0  0  0  0  0  0  0  0
   20.7971  132.4231   -1.6563 N   0  0  0  0  0  0  0  0  0  0  0  0
   20.7703  132.4998   -2.9968 C   0  0  1  0  0  0  0  0  0  0  0  0
   19.5038  132.4682   -3.7218 C   0  0  0  0  0  0  0  0  0  0  0  0
   18.2976  133.2412   -3.5038 C   0  0  0  0  0  0  0  0  0  0  0  0
   17.1379  132.7683   -2.3255 S   0  0  0  0  0  0  0  0  0  0  0  0
   15.8808  131.6797   -2.9677 C   0  0  0  0  0  0  0  0  0  0  0  0
   16.6695  133.7374   -1.3273 O   0  0  0  0  0  0  0  0  0  0  0  0
   17.9670  131.7501   -1.4021 O   0  0  0  0  0  0  0  0  0  0  0  0
   21.5574  133.6663   -3.6177 C   0  0  0  0  0  0  0  0  0  0  0  0
   20.8478  134.6152   -3.9321 O   0  0  0  0  0  0  0  0  0  0  0  0
   22.8964  133.6547   -3.8016 O   0  0  0  0  0  0  0  0  0  0  0  0
   22.9511  134.2667    3.5514 N   0  3  0  0  0  0  0  0  0  0  0  0
   23.8915  135.2642    3.8963 C   0  0  0  0  0  0  0  0  0  0  0  0
   25.1468  134.8980    4.5746 C   0  0  2  0  0  0  0  0  0  0  0  0
   25.8092  133.8550    3.7270 N   0  3  0  0  0  0  0  0  0  0  0  0
   25.0437  134.2335    5.9183 C   0  0  0  0  0  0  0  0  0  0  0  0
   23.6165  134.7283    6.8048 S   0  0  0  0  0  0  0  0  0  0  0  0
   22.4441  137.8624    1.0135 H   0  0  0  0  0  0  0  0  0  0  0  0
   22.4321  136.2341    1.1358 H   0  0  0  0  0  0  0  0  0  0  0  0
   21.0243  137.0609    1.1044 H   0  0  0  0  0  0  0  0  0  0  0  0
   21.5522  138.0398    3.2127 H   0  0  0  0  0  0  0  0  0  0  0  0
   22.9600  137.2130    3.2441 H   0  0  0  0  0  0  0  0  0  0  0  0
   20.3515  136.1576    3.3648 H   0  0  0  0  0  0  0  0  0  0  0  0
   20.8940  135.3580    5.5355 H   0  0  0  0  0  0  0  0  0  0  0  0
   22.3177  136.1520    5.4383 H   0  0  0  0  0  0  0  0  0  0  0  0
   20.9145  136.9872    5.4266 H   0  0  0  0  0  0  0  0  0  0  0  0
   21.8017  134.8374    2.1595 H   0  0  0  0  0  0  0  0  0  0  0  0
   19.6956  134.0691    3.0722 H   0  0  0  0  0  0  0  0  0  0  0  0
   20.6604  133.0717    3.9329 H   0  0  0  0  0  0  0  0  0  0  0  0
   20.9998  134.1746    0.6147 H   0  0  0  0  0  0  0  0  0  0  0  0
   18.6639  133.3361    1.6164 H   0  0  0  0  0  0  0  0  0  0  0  0
   18.6278  133.3523   -0.0161 H   0  0  0  0  0  0  0  0  0  0  0  0
   19.4210  135.6047   -1.0580 H   0  0  0  0  0  0  0  0  0  0  0  0
   18.7366  137.8982   -1.0138 H   0  0  0  0  0  0  0  0  0  0  0  0
   17.5626  138.7670    0.8744 H   0  0  0  0  0  0  0  0  0  0  0  0
   17.0671  137.3464    2.7334 H   0  0  0  0  0  0  0  0  0  0  0  0
   17.7477  135.0512    2.6985 H   0  0  0  0  0  0  0  0  0  0  0  0
   19.8910  132.0002   -1.6624 H   0  0  0  0  0  0  0  0  0  0  0  0
   21.2543  131.6803   -3.3037 H   0  0  0  0  0  0  0  0  0  0  0  0
   19.2031  131.5171   -3.6510 H   0  0  0  0  0  0  0  0  0  0  0  0
   19.7568  132.6681   -4.6684 H   0  0  0  0  0  0  0  0  0  0  0  0
   17.8164  133.2690   -4.3800 H   0  0  0  0  0  0  0  0  0  0  0  0
   18.5930  134.1640   -3.2564 H   0  0  0  0  0  0  0  0  0  0  0  0
   15.2403  131.4425   -2.2372 H   0  0  0  0  0  0  0  0  0  0  0  0
   15.3880  132.1390   -3.7069 H   0  0  0  0  0  0  0  0  0  0  0  0
   16.3087  130.8471   -3.3192 H   0  0  0  0  0  0  0  0  0  0  0  0
   23.3455  133.7329    2.8034 H   0  0  0  0  0  0  0  0  0  0  0  0
   22.8328  133.6806    4.3530 H   0  0  0  0  0  0  0  0  0  0  0  0
   23.4187  135.9103    4.4954 H   0  0  0  0  0  0  0  0  0  0  0  0
   24.1477  135.7241    3.0461 H   0  0  0  0  0  0  0  0  0  0  0  0
   25.7386  135.7012    4.6420 H   0  0  0  0  0  0  0  0  0  0  0  0
   26.7973  134.0087    3.7208 H   0  0  0  0  0  0  0  0  0  0  0  0
   25.6152  132.9483    4.1017 H   0  0  0  0  0  0  0  0  0  0  0  0
   25.4573  133.9118    2.7927 H   0  0  0  0  0  0  0  0  0  0  0  0
   25.8531  134.4702    6.4558 H   0  0  0  0  0  0  0  0  0  0  0  0
   25.0105  133.2430    5.7844 H   0  0  0  0  0  0  0  0  0  0  0  0
   22.9322  134.0000    6.7682 H   0  0  0  0  0  0  0  0  0  0  0  0
   23.5072  133.8834   -3.0436 H   0  0  0  0  0  0  0  0  0  0  0  0
  1  2  1  0  0  0  0
  2  3  1  0  0  0  0
  3  4  1  0  0  0  0
  3  5  1  0  0  0  0
  5  6  1  0  0  0  0
  6  7  1  0  0  0  0
  7  8  1  0  0  0  0
  8  9  1  0  0  0  0
  9 10  1  0  0  0  0
 10 11  2  0  0  0  0
 11 12  1  0  0  0  0
 12 13  2  0  0  0  0
 13 14  1  0  0  0  0
 14 15  2  0  0  0  0
  8 16  1  0  0  0  0
 16 17  2  0  0  0  0
 16 18  1  0  0  0  0
 18 19  1  0  0  0  0
 19 20  1  0  0  0  0
 20 21  1  0  0  0  0
 21 22  1  0  0  0  0
 22 23  1  0  0  0  0
 22 24  2  0  0  0  0
 22 25  2  0  0  0  0
 19 26  1  0  0  0  0
 26 27  2  0  0  0  0
 26 28  1  0  0  0  0
  5 29  1  0  0  0  0
 29 30  1  0  0  0  0
 30 31  1  0  0  0  0
 31 32  1  0  0  0  0
 31 33  1  0  0  0  0
 33 34  1  0  0  0  0
 15 10  1  0  0  0  0
  1 35  1  0  0  0  0
  1 36  1  0  0  0  0
  1 37  1  0  0  0  0
  2 38  1  0  0  0  0
  2 39  1  0  0  0  0
  3 40  1  0  0  0  0
  4 41  1  0  0  0  0
  4 42  1  0  0  0  0
  4 43  1  0  0  0  0
  5 44  1  0  0  0  0
  6 45  1  0  0  0  0
  6 46  1  0  0  0  0
  8 47  1  0  0  0  0
  9 48  1  0  0  0  0
  9 49  1  0  0  0  0
 11 50  1  0  0  0  0
 12 51  1  0  0  0  0
 13 52  1  0  0  0  0
 14 53  1  0  0  0  0
 15 54  1  0  0  0  0
 18 55  1  0  0  0  0
 19 56  1  0  0  0  0
 20 57  1  0  0  0  0
 20 58  1  0  0  0  0
 21 59  1  0  0  0  0
 21 60  1  0  0  0  0
 23 61  1  0  0  0  0
 23 62  1  0  0  0  0
 23 63  1  0  0  0  0
 29 64  1  0  0  0  0
 29 65  1  0  0  0  0
 30 66  1  0  0  0  0
 30 67  1  0  0  0  0
 31 68  1  0  0  0  0
 32 69  1  0  0  0  0
 32 70  1  0  0  0  0
 32 71  1  0  0  0  0
 33 72  1  0  0  0  0
 33 73  1  0  0  0  0
 34 74  1  0  0  0  0
 28 75  1  0  0  0  0
M  CHG  2  29   1  32   1
M  END
> <BIOSOLVEIT.HYDE_ESTIMATED_AFFINITY_LOWER_BOUNDARY [nM]>
23700096983.657215

> <BIOSOLVEIT.HYDE_ESTIMATED_AFFINITY_UPPER_BOUNDARY [nM]>
2354744761389.454102

> <BIOSOLVEIT.HYDE_LIGAND_EFFICIENCY range: ++, +, 0, -, -->
--

> <BIOSOLVEIT.HYDE_LIGAND_LIPOPHILIC_EFFICIENCY range: ++, +, 0, -, -->
--

> <BIOSOLVEIT.INTER_CLASH range: red, yellow, green>
green

> <BIOSOLVEIT.INTRA_CLASH range: red, yellow, green>
red

> <BIOSOLVEIT.LOGP>
0.1676

> <BIOSOLVEIT.MOLECULAR WEIGHT>
519.722

> <BIOSOLVEIT.MOLECULE_CHECKSUM>
MTMuNTQ3MTsw

> <BIOSOLVEIT.TORSION_QUALITY range: red, yellow, green, not rotatable>
red

> <BIOSOLVEIT.TPSA>
154.02

$$$$
1SA4_JAN_1
foHydescor03192112213D 1   1.00000     0.00000     0
Hydescorer 1.1.0 fol007
 57 61  0  0  0  0            999 V2000
   20.1158  136.1153   -3.6245 C   0  0  0  0  0  0  0  0  0  0  0  0
   20.9740  135.0098   -3.1736 N   0  0  0  0  0  0  0  0  0  0  0  0
   22.3131  134.9016   -3.4112 C   0  0  0  0  0  0  0  0  0  0  0  0
   22.7308  133.7866   -2.8534 N   0  0  0  0  0  0  0  0  0  0  0  0
   21.6702  133.1682   -2.2539 C   0  0  0  0  0  0  0  0  0  0  0  0
   20.5580  133.9333   -2.4518 C   0  0  0  0  0  0  0  0  0  0  0  0
   19.1310  133.6376   -1.9530 C   0  0  1  0  0  0  0  0  0  0  0  0
   19.0509  132.2192   -1.5222 N   0  3  0  0  0  0  0  0  0  0  0  0
   18.8227  134.5620   -0.7493 C   0  0  0  0  0  0  0  0  0  0  0  0
   17.7069  134.3022    0.0405 C   0  0  0  0  0  0  0  0  0  0  0  0
   17.4166  135.1223    1.1257 C   0  0  0  0  0  0  0  0  0  0  0  0
   18.2526  136.1977    1.4053 C   0  0  0  0  0  0  0  0  0  0  0  0
   17.8949  137.2570    2.7906 Cl  0  0  0  0  0  0  0  0  0  0  0  0
   19.3683  136.4587    0.6174 C   0  0  0  0  0  0  0  0  0  0  0  0
   19.6577  135.6379   -0.4676 C   0  0  0  0  0  0  0  0  0  0  0  0
   18.0950  133.8648   -3.0343 C   0  0  0  0  0  0  0  0  0  0  0  0
   18.0255  132.9931   -4.1123 C   0  0  0  0  0  0  0  0  0  0  0  0
   17.0587  133.2432   -5.0770 C   0  0  0  0  0  0  0  0  0  0  0  0
   16.1918  134.3260   -4.9686 C   0  0  0  0  0  0  0  0  0  0  0  0
   16.2905  135.1769   -3.8766 C   0  0  0  0  0  0  0  0  0  0  0  0
   17.2482  134.9537   -2.8939 C   0  0  0  0  0  0  0  0  0  0  0  0
   15.3891  136.3116   -3.7681 C   0  0  0  0  0  0  0  0  0  0  0  0
   15.4604  137.2319   -2.6480 C   0  0  0  0  0  0  0  0  0  0  0  0
   14.7363  136.9582   -1.4925 C   0  0  0  0  0  0  0  0  0  0  0  0
   14.8104  137.8457   -0.4236 C   0  0  0  0  0  0  0  0  0  0  0  0
   15.5939  138.9922   -0.4996 C   0  0  0  0  0  0  0  0  0  0  0  0
   16.3096  139.2457   -1.6651 C   0  0  0  0  0  0  0  0  0  0  0  0
   17.3174  140.7081   -1.7828 Cl  0  0  0  0  0  0  0  0  0  0  0  0
   16.2500  138.3726   -2.7464 C   0  0  0  0  0  0  0  0  0  0  0  0
   14.4652  136.5668   -4.6765 C   0  0  0  0  0  0  0  0  0  0  0  0
   14.3444  135.6862   -5.8225 C   0  0  0  0  0  0  0  0  0  0  0  0
   13.4900  135.9215   -6.6619 O   0  0  0  0  0  0  0  0  0  0  0  0
   15.2120  134.5913   -5.9339 N   0  0  0  0  0  0  0  0  0  0  0  0
   15.0498  133.7312   -7.1182 C   0  0  0  0  0  0  0  0  0  0  0  0
   19.1770  135.9542   -3.3199 H   0  0  0  0  0  0  0  0  0  0  0  0
   20.4488  136.9751   -3.2374 H   0  0  0  0  0  0  0  0  0  0  0  0
   20.1377  136.1685   -4.6229 H   0  0  0  0  0  0  0  0  0  0  0  0
   22.8762  135.5536   -3.9189 H   0  0  0  0  0  0  0  0  0  0  0  0
   21.7034  132.3021   -1.7551 H   0  0  0  0  0  0  0  0  0  0  0  0
   18.0919  131.9573   -1.4141 H   0  0  0  0  0  0  0  0  0  0  0  0
   19.4798  131.6364   -2.2125 H   0  0  0  0  0  0  0  0  0  0  0  0
   19.5272  132.1083   -0.6500 H   0  0  0  0  0  0  0  0  0  0  0  0
   17.1137  133.5257   -0.1722 H   0  0  0  0  0  0  0  0  0  0  0  0
   16.6166  134.9408    1.6977 H   0  0  0  0  0  0  0  0  0  0  0  0
   19.9615  137.2351    0.8305 H   0  0  0  0  0  0  0  0  0  0  0  0
   20.4579  135.8195   -1.0392 H   0  0  0  0  0  0  0  0  0  0  0  0
   18.6482  132.2146   -4.1911 H   0  0  0  0  0  0  0  0  0  0  0  0
   16.9839  132.6328   -5.8655 H   0  0  0  0  0  0  0  0  0  0  0  0
   17.3245  135.5636   -2.1051 H   0  0  0  0  0  0  0  0  0  0  0  0
   14.1709  136.1357   -1.4310 H   0  0  0  0  0  0  0  0  0  0  0  0
   14.2929  137.6565    0.4110 H   0  0  0  0  0  0  0  0  0  0  0  0
   15.6421  139.6255    0.2728 H   0  0  0  0  0  0  0  0  0  0  0  0
   16.7669  138.5621   -3.5813 H   0  0  0  0  0  0  0  0  0  0  0  0
   13.8582  137.3550   -4.5758 H   0  0  0  0  0  0  0  0  0  0  0  0
   15.7200  132.9898   -7.0860 H   0  0  0  0  0  0  0  0  0  0  0  0
   14.1269  133.3462   -7.1266 H   0  0  0  0  0  0  0  0  0  0  0  0
   15.1923  134.2736   -7.9461 H   0  0  0  0  0  0  0  0  0  0  0  0
  1  2  1  0  0  0  0
  2  3  1  0  0  0  0
  3  4  2  0  0  0  0
  4  5  1  0  0  0  0
  5  6  2  0  0  0  0
  6  7  1  0  0  0  0
  7  8  1  0  0  0  0
  7  9  1  0  0  0  0
  9 10  2  0  0  0  0
 10 11  1  0  0  0  0
 11 12  2  0  0  0  0
 12 13  1  0  0  0  0
 12 14  1  0  0  0  0
 14 15  2  0  0  0  0
  7 16  1  0  0  0  0
 16 17  2  0  0  0  0
 17 18  1  0  0  0  0
 18 19  2  0  0  0  0
 19 20  1  0  0  0  0
 20 21  2  0  0  0  0
 20 22  1  0  0  0  0
 22 23  1  0  0  0  0
 23 24  2  0  0  0  0
 24 25  1  0  0  0  0
 25 26  2  0  0  0  0
 26 27  1  0  0  0  0
 27 28  1  0  0  0  0
 27 29  2  0  0  0  0
 22 30  2  0  0  0  0
 30 31  1  0  0  0  0
 31 32  2  0  0  0  0
 31 33  1  0  0  0  0
 33 34  1  0  0  0  0
  6  2  1  0  0  0  0
 15  9  1  0  0  0  0
 21 16  1  0  0  0  0
 29 23  1  0  0  0  0
 33 19  1  0  0  0  0
  1 35  1  0  0  0  0
  1 36  1  0  0  0  0
  1 37  1  0  0  0  0
  3 38  1  0  0  0  0
  5 39  1  0  0  0  0
  8 40  1  0  0  0  0
  8 41  1  0  0  0  0
  8 42  1  0  0  0  0
 10 43  1  0  0  0  0
 11 44  1  0  0  0  0
 14 45  1  0  0  0  0
 15 46  1  0  0  0  0
 17 47  1  0  0  0  0
 18 48  1  0  0  0  0
 21 49  1  0  0  0  0
 24 50  1  0  0  0  0
 25 51  1  0  0  0  0
 26 52  1  0  0  0  0
 29 53  1  0  0  0  0
 30 54  1  0  0  0  0
 34 55  1  0  0  0  0
 34 56  1  0  0  0  0
 34 57  1  0  0  0  0
M  CHG  1   8   1
M  END
> <BIOSOLVEIT.HYDE_ESTIMATED_AFFINITY_LOWER_BOUNDARY [nM]>
72900.679718

> <BIOSOLVEIT.HYDE_ESTIMATED_AFFINITY_UPPER_BOUNDARY [nM]>
7243113.552952

> <BIOSOLVEIT.HYDE_LIGAND_EFFICIENCY range: ++, +, 0, -, -->
--

> <BIOSOLVEIT.HYDE_LIGAND_LIPOPHILIC_EFFICIENCY range: ++, +, 0, -, -->
--

> <BIOSOLVEIT.INTER_CLASH range: red, yellow, green>
green

> <BIOSOLVEIT.INTRA_CLASH range: red, yellow, green>
green

> <BIOSOLVEIT.LOGP>
4.6688

> <BIOSOLVEIT.MOLECULAR WEIGHT>
490.412

> <BIOSOLVEIT.MOLECULE_CHECKSUM>
LTE3LjkxNTY7MC41MjY5Mjg=

> <BIOSOLVEIT.TORSION_QUALITY range: red, yellow, green, not rotatable>
yellow

> <BIOSOLVEIT.TPSA>
65.77

$$$$
1SA4_JAN_2
foHydescor03192112213D 1   1.00000     0.00000     0
Hydescorer 1.1.0 fol007
 56 60  0  0  0  0            999 V2000
   19.9611  135.7945   -1.9196 C   0  0  0  0  0  0  0  0  0  0  0  0
   20.9148  135.1473   -2.8326 N   0  0  0  0  0  0  0  0  0  0  0  0
   22.0337  135.7316   -3.3505 C   0  0  0  0  0  0  0  0  0  0  0  0
   22.6307  134.8457   -4.1171 N   0  0  0  0  0  0  0  0  0  0  0  0
   21.9059  133.6875   -4.1011 C   0  0  0  0  0  0  0  0  0  0  0  0
   20.8215  133.8697   -3.2935 C   0  0  0  0  0  0  0  0  0  0  0  0
   19.7402  132.8508   -2.9733 C   0  0  1  0  0  0  0  0  0  0  0  0
   20.0161  131.5982   -3.7210 N   0  0  0  0  0  0  0  0  0  0  0  0
   19.7635  132.5612   -1.4521 C   0  0  0  0  0  0  0  0  0  0  0  0
   18.8253  133.1751   -0.6278 C   0  0  0  0  0  0  0  0  0  0  0  0
   18.8322  132.9248    0.7405 C   0  0  0  0  0  0  0  0  0  0  0  0
   19.7847  132.0589    1.2663 C   0  0  0  0  0  0  0  0  0  0  0  0
   19.8070  131.7282    3.0153 Cl  0  0  0  0  0  0  0  0  0  0  0  0
   20.7227  131.4444    0.4440 C   0  0  0  0  0  0  0  0  0  0  0  0
   20.7149  131.6953   -0.9241 C   0  0  0  0  0  0  0  0  0  0  0  0
   18.3348  133.3547   -3.3739 C   0  0  0  0  0  0  0  0  0  0  0  0
   17.2169  132.5957   -3.0555 C   0  0  0  0  0  0  0  0  0  0  0  0
   15.9769  133.0911   -3.4361 C   0  0  0  0  0  0  0  0  0  0  0  0
   15.8576  134.3019   -4.1110 C   0  0  0  0  0  0  0  0  0  0  0  0
   16.9975  135.0340   -4.4127 C   0  0  0  0  0  0  0  0  0  0  0  0
   18.2536  134.5650   -4.0457 C   0  0  0  0  0  0  0  0  0  0  0  0
   16.8722  136.2951   -5.1238 C   0  0  0  0  0  0  0  0  0  0  0  0
   18.0366  137.0906   -5.4672 C   0  0  0  0  0  0  0  0  0  0  0  0
   18.4130  137.2093   -6.8009 C   0  0  0  0  0  0  0  0  0  0  0  0
   19.5305  137.9736   -7.1213 C   0  0  0  0  0  0  0  0  0  0  0  0
   20.2669  138.6133   -6.1301 C   0  0  0  0  0  0  0  0  0  0  0  0
   19.8720  138.4807   -4.8028 C   0  0  0  0  0  0  0  0  0  0  0  0
   20.8019  139.2906   -3.5192 Cl  0  0  0  0  0  0  0  0  0  0  0  0
   18.7585  137.7210   -4.4593 C   0  0  0  0  0  0  0  0  0  0  0  0
   15.7018  136.7809   -5.4959 C   0  0  0  0  0  0  0  0  0  0  0  0
   14.4994  136.0319   -5.1855 C   0  0  0  0  0  0  0  0  0  0  0  0
   13.4176  136.4811   -5.5286 O   0  0  0  0  0  0  0  0  0  0  0  0
   14.6137  134.8140   -4.5015 N   0  0  0  0  0  0  0  0  0  0  0  0
   13.3629  134.0916   -4.2148 C   0  0  0  0  0  0  0  0  0  0  0  0
   19.2309  135.1512   -1.6895 H   0  0  0  0  0  0  0  0  0  0  0  0
   20.4355  136.0728   -1.0845 H   0  0  0  0  0  0  0  0  0  0  0  0
   19.5683  136.5997   -2.3639 H   0  0  0  0  0  0  0  0  0  0  0  0
   22.3443  136.6663   -3.1779 H   0  0  0  0  0  0  0  0  0  0  0  0
   22.1318  132.8490   -4.5971 H   0  0  0  0  0  0  0  0  0  0  0  0
   19.2198  130.9957   -3.6673 H   0  0  0  0  0  0  0  0  0  0  0  0
   20.2052  131.8163   -4.6784 H   0  0  0  0  0  0  0  0  0  0  0  0
   18.1462  133.7962   -1.0191 H   0  0  0  0  0  0  0  0  0  0  0  0
   18.1605  133.3620    1.3385 H   0  0  0  0  0  0  0  0  0  0  0  0
   21.4016  130.8233    0.8355 H   0  0  0  0  0  0  0  0  0  0  0  0
   21.3865  131.2575   -1.5218 H   0  0  0  0  0  0  0  0  0  0  0  0
   17.3016  131.7253   -2.5706 H   0  0  0  0  0  0  0  0  0  0  0  0
   15.1529  132.5671   -3.2206 H   0  0  0  0  0  0  0  0  0  0  0  0
   19.0785  135.0877   -4.2608 H   0  0  0  0  0  0  0  0  0  0  0  0
   17.8881  136.7521   -7.5188 H   0  0  0  0  0  0  0  0  0  0  0  0
   19.8080  138.0642   -8.0778 H   0  0  0  0  0  0  0  0  0  0  0  0
   21.0690  139.1611   -6.3681 H   0  0  0  0  0  0  0  0  0  0  0  0
   18.4815  137.6295   -3.5028 H   0  0  0  0  0  0  0  0  0  0  0  0
   15.6456  137.6518   -5.9841 H   0  0  0  0  0  0  0  0  0  0  0  0
   13.5718  133.2439   -3.7271 H   0  0  0  0  0  0  0  0  0  0  0  0
   12.7695  134.6641   -3.6491 H   0  0  0  0  0  0  0  0  0  0  0  0
   12.8980  133.8762   -5.0736 H   0  0  0  0  0  0  0  0  0  0  0  0
  1  2  1  0  0  0  0
  2  3  1  0  0  0  0
  3  4  2  0  0  0  0
  4  5  1  0  0  0  0
  5  6  2  0  0  0  0
  6  7  1  0  0  0  0
  7  8  1  0  0  0  0
  7  9  1  0  0  0  0
  9 10  2  0  0  0  0
 10 11  1  0  0  0  0
 11 12  2  0  0  0  0
 12 13  1  0  0  0  0
 12 14  1  0  0  0  0
 14 15  2  0  0  0  0
  7 16  1  0  0  0  0
 16 17  2  0  0  0  0
 17 18  1  0  0  0  0
 18 19  2  0  0  0  0
 19 20  1  0  0  0  0
 20 21  2  0  0  0  0
 20 22  1  0  0  0  0
 22 23  1  0  0  0  0
 23 24  2  0  0  0  0
 24 25  1  0  0  0  0
 25 26  2  0  0  0  0
 26 27  1  0  0  0  0
 27 28  1  0  0  0  0
 27 29  2  0  0  0  0
 22 30  2  0  0  0  0
 30 31  1  0  0  0  0
 31 32  2  0  0  0  0
 31 33  1  0  0  0  0
 33 34  1  0  0  0  0
  6  2  1  0  0  0  0
 15  9  1  0  0  0  0
 21 16  1  0  0  0  0
 29 23  1  0  0  0  0
 33 19  1  0  0  0  0
  1 35  1  0  0  0  0
  1 36  1  0  0  0  0
  1 37  1  0  0  0  0
  3 38  1  0  0  0  0
  5 39  1  0  0  0  0
 34 56  1  0  0  0  0
  8 40  1  0  0  0  0
  8 41  1  0  0  0  0
 10 42  1  0  0  0  0
 11 43  1  0  0  0  0
 14 44  1  0  0  0  0
 15 45  1  0  0  0  0
 17 46  1  0  0  0  0
 18 47  1  0  0  0  0
 21 48  1  0  0  0  0
 24 49  1  0  0  0  0
 25 50  1  0  0  0  0
 26 51  1  0  0  0  0
 29 52  1  0  0  0  0
 30 53  1  0  0  0  0
 34 54  1  0  0  0  0
 34 55  1  0  0  0  0
M  END
> <BIOSOLVEIT.HYDE_ESTIMATED_AFFINITY_LOWER_BOUNDARY [nM]>
191074454.868318

> <BIOSOLVEIT.HYDE_ESTIMATED_AFFINITY_UPPER_BOUNDARY [nM]>
18984376812.752064

> <BIOSOLVEIT.HYDE_LIGAND_EFFICIENCY range: ++, +, 0, -, -->
--

> <BIOSOLVEIT.HYDE_LIGAND_LIPOPHILIC_EFFICIENCY range: ++, +, 0, -, -->
--

> <BIOSOLVEIT.INTER_CLASH range: red, yellow, green>
yellow

> <BIOSOLVEIT.INTRA_CLASH range: red, yellow, green>
yellow

> <BIOSOLVEIT.LOGP>
5.3856

> <BIOSOLVEIT.MOLECULAR WEIGHT>
489.404

> <BIOSOLVEIT.MOLECULE_CHECKSUM>
MS41OTcxOzA=

> <BIOSOLVEIT.TORSION_QUALITY range: red, yellow, green, not rotatable>
green

> <BIOSOLVEIT.TPSA>
64.15

$$$$
1SA4_JAN_3
foHydescor03192112213D 1   1.00000     0.00000     0
Hydescorer 1.1.0 fol007
 56 60  0  0  0  0            999 V2000
   20.1019  135.7047   -1.6411 C   0  0  0  0  0  0  0  0  0  0  0  0
   20.9767  135.1328   -2.6754 N   0  0  0  0  0  0  0  0  0  0  0  0
   22.0606  135.7530   -3.2249 C   0  0  0  0  0  0  0  0  0  0  0  0
   22.5877  134.9327   -4.1071 N   0  0  0  0  0  0  0  0  0  0  0  0
   21.8522  133.7817   -4.1350 C   0  0  0  0  0  0  0  0  0  0  0  0
   20.8337  133.9000   -3.2349 C   0  0  0  0  0  0  0  0  0  0  0  0
   19.7672  132.8634   -2.9219 C   0  0  1  0  0  0  0  0  0  0  0  0
   20.0602  131.6206   -3.6790 N   0  0  0  0  0  0  0  0  0  0  0  0
   19.7957  132.5628   -1.4029 C   0  0  0  0  0  0  0  0  0  0  0  0
   18.7629  133.0315   -0.5965 C   0  0  0  0  0  0  0  0  0  0  0  0
   18.7731  132.7693    0.7694 C   0  0  0  0  0  0  0  0  0  0  0  0
   19.8244  132.0377    1.3112 C   0  0  0  0  0  0  0  0  0  0  0  0
   19.8524  131.6937    3.0576 Cl  0  0  0  0  0  0  0  0  0  0  0  0
   20.8571  131.5684    0.5070 C   0  0  0  0  0  0  0  0  0  0  0  0
   20.8458  131.8311   -0.8590 C   0  0  0  0  0  0  0  0  0  0  0  0
   18.3544  133.3504   -3.3177 C   0  0  0  0  0  0  0  0  0  0  0  0
   17.2848  132.4672   -3.2669 C   0  0  0  0  0  0  0  0  0  0  0  0
   16.0358  132.9523   -3.6314 C   0  0  0  0  0  0  0  0  0  0  0  0
   15.8617  134.2730   -4.0327 C   0  0  0  0  0  0  0  0  0  0  0  0
   16.9543  135.1277   -4.0715 C   0  0  0  0  0  0  0  0  0  0  0  0
   18.2179  134.6724   -3.7129 C   0  0  0  0  0  0  0  0  0  0  0  0
   16.7724  136.5052   -4.4974 C   0  0  0  0  0  0  0  0  0  0  0  0
   17.8870  137.4325   -4.5606 C   0  0  0  0  0  0  0  0  0  0  0  0
   18.4338  137.9240   -3.3799 C   0  0  0  0  0  0  0  0  0  0  0  0
   19.5022  138.8126   -3.4496 C   0  0  0  0  0  0  0  0  0  0  0  0
   20.0227  139.2097   -4.6767 C   0  0  0  0  0  0  0  0  0  0  0  0
   19.4600  138.7052   -5.8446 C   0  0  0  0  0  0  0  0  0  0  0  0
   20.1110  139.2019   -7.4250 Cl  0  0  0  0  0  0  0  0  0  0  0  0
   18.3910  137.8162   -5.7988 C   0  0  0  0  0  0  0  0  0  0  0  0
   15.5929  136.9837   -4.8500 C   0  0  0  0  0  0  0  0  0  0  0  0
   14.4388  136.1063   -4.8118 C   0  0  0  0  0  0  0  0  0  0  0  0
   13.3487  136.5486   -5.1369 O   0  0  0  0  0  0  0  0  0  0  0  0
   14.6082  134.7763   -4.4037 N   0  0  0  0  0  0  0  0  0  0  0  0
   13.4053  133.9270   -4.3866 C   0  0  0  0  0  0  0  0  0  0  0  0
   19.3832  135.0481   -1.4120 H   0  0  0  0  0  0  0  0  0  0  0  0
   20.6409  135.9076   -0.8236 H   0  0  0  0  0  0  0  0  0  0  0  0
   19.6866  136.5472   -1.9842 H   0  0  0  0  0  0  0  0  0  0  0  0
   22.3944  136.6678   -2.9973 H   0  0  0  0  0  0  0  0  0  0  0  0
   22.0301  132.9876   -4.7162 H   0  0  0  0  0  0  0  0  0  0  0  0
   19.3027  130.9770   -3.5694 H   0  0  0  0  0  0  0  0  0  0  0  0
   20.1740  131.8396   -4.6482 H   0  0  0  0  0  0  0  0  0  0  0  0
   18.0133  133.5568   -0.9992 H   0  0  0  0  0  0  0  0  0  0  0  0
   18.0339  133.1026    1.3545 H   0  0  0  0  0  0  0  0  0  0  0  0
   21.6065  131.0429    0.9098 H   0  0  0  0  0  0  0  0  0  0  0  0
   21.5851  131.4974   -1.4438 H   0  0  0  0  0  0  0  0  0  0  0  0
   17.4090  131.5177   -2.9788 H   0  0  0  0  0  0  0  0  0  0  0  0
   15.2457  132.3400   -3.6049 H   0  0  0  0  0  0  0  0  0  0  0  0
   19.0092  135.2834   -3.7393 H   0  0  0  0  0  0  0  0  0  0  0  0
   18.0646  137.6429   -2.4942 H   0  0  0  0  0  0  0  0  0  0  0  0
   19.9014  139.1708   -2.6056 H   0  0  0  0  0  0  0  0  0  0  0  0
   20.7907  139.8488   -4.7189 H   0  0  0  0  0  0  0  0  0  0  0  0
   17.9913  137.4587   -6.6428 H   0  0  0  0  0  0  0  0  0  0  0  0
   15.4972  137.9362   -5.1388 H   0  0  0  0  0  0  0  0  0  0  0  0
   13.6510  133.0073   -4.0804 H   0  0  0  0  0  0  0  0  0  0  0  0
   12.7304  134.3175   -3.7604 H   0  0  0  0  0  0  0  0  0  0  0  0
   13.0176  133.8795   -5.3071 H   0  0  0  0  0  0  0  0  0  0  0  0
  1  2  1  0  0  0  0
  2  3  1  0  0  0  0
  3  4  2  0  0  0  0
  4  5  1  0  0  0  0
  5  6  2  0  0  0  0
  6  7  1  0  0  0  0
  7  8  1  0  0  0  0
  7  9  1  0  0  0  0
  9 10  2  0  0  0  0
 10 11  1  0  0  0  0
 11 12  2  0  0  0  0
 12 13  1  0  0  0  0
 12 14  1  0  0  0  0
 14 15  2  0  0  0  0
  7 16  1  0  0  0  0
 16 17  2  0  0  0  0
 17 18  1  0  0  0  0
 18 19  2  0  0  0  0
 19 20  1  0  0  0  0
 20 21  2  0  0  0  0
 20 22  1  0  0  0  0
 22 23  1  0  0  0  0
 23 24  2  0  0  0  0
 24 25  1  0  0  0  0
 25 26  2  0  0  0  0
 26 27  1  0  0  0  0
 27 28  1  0  0  0  0
 27 29  2  0  0  0  0
 22 30  2  0  0  0  0
 30 31  1  0  0  0  0
 31 32  2  0  0  0  0
 31 33  1  0  0  0  0
 33 34  1  0  0  0  0
  6  2  1  0  0  0  0
 15  9  1  0  0  0  0
 21 16  1  0  0  0  0
 29 23  1  0  0  0  0
 33 19  1  0  0  0  0
  1 35  1  0  0  0  0
  1 36  1  0  0  0  0
  1 37  1  0  0  0  0
  3 38  1  0  0  0  0
  5 39  1  0  0  0  0
 34 56  1  0  0  0  0
  8 40  1  0  0  0  0
  8 41  1  0  0  0  0
 10 42  1  0  0  0  0
 11 43  1  0  0  0  0
 14 44  1  0  0  0  0
 15 45  1  0  0  0  0
 17 46  1  0  0  0  0
 18 47  1  0  0  0  0
 21 48  1  0  0  0  0
 24 49  1  0  0  0  0
 25 50  1  0  0  0  0
 26 51  1  0  0  0  0
 29 52  1  0  0  0  0
 30 53  1  0  0  0  0
 34 54  1  0  0  0  0
 34 55  1  0  0  0  0
M  END
> <BIOSOLVEIT.HYDE_ESTIMATED_AFFINITY_LOWER_BOUNDARY [nM]>
2428678698.496690

> <BIOSOLVEIT.HYDE_ESTIMATED_AFFINITY_UPPER_BOUNDARY [nM]>
241303588180.538116

> <BIOSOLVEIT.HYDE_LIGAND_EFFICIENCY range: ++, +, 0, -, -->
--

> <BIOSOLVEIT.HYDE_LIGAND_LIPOPHILIC_EFFICIENCY range: ++, +, 0, -, -->
--

> <BIOSOLVEIT.INTER_CLASH range: red, yellow, green>
yellow

> <BIOSOLVEIT.INTRA_CLASH range: red, yellow, green>
yellow

> <BIOSOLVEIT.LOGP>
5.3856

> <BIOSOLVEIT.MOLECULAR WEIGHT>
489.404

> <BIOSOLVEIT.MOLECULE_CHECKSUM>
Ny44OTk3OzA=

> <BIOSOLVEIT.TORSION_QUALITY range: red, yellow, green, not rotatable>
green

> <BIOSOLVEIT.TPSA>
64.15

$$$$
1MZC_BNE_1
foHydescor03192112213D 1   1.00000     0.00000     0
Hydescorer 1.1.0 fol007
 69 72  0  0  0  0            999 V2000
   13.9953  135.6109   -6.4534 C   0  0  0  0  0  0  0  0  0  0  0  0
   14.0545  136.1996   -5.0339 C   0  0  0  0  0  0  0  0  0  0  0  0
   15.2213  135.7359   -4.1771 C   0  0  1  0  0  0  0  0  0  0  0  0
   14.9910  134.3068   -3.7153 C   0  0  0  0  0  0  0  0  0  0  0  0
   13.7211  133.7452   -3.8002 C   0  0  0  0  0  0  0  0  0  0  0  0
   13.5334  132.4352   -3.3714 C   0  0  0  0  0  0  0  0  0  0  0  0
   14.5916  131.6887   -2.8636 C   0  0  0  0  0  0  0  0  0  0  0  0
   15.8532  132.2697   -2.7874 C   0  0  0  0  0  0  0  0  0  0  0  0
   16.8858  131.5518   -2.2952 O   0  0  0  0  0  0  0  0  0  0  0  0
   18.2309  131.9564   -2.2991 C   0  0  0  0  0  0  0  0  0  0  0  0
   18.8377  132.2683   -1.0869 C   0  0  0  0  0  0  0  0  0  0  0  0
   20.1694  132.6700   -1.0831 C   0  0  0  0  0  0  0  0  0  0  0  0
   20.8426  133.0135    0.2360 C   0  0  2  0  0  0  0  0  0  0  0  0
   21.7490  134.2408   -0.0215 C   0  0  0  0  0  0  0  0  0  0  0  0
   21.6897  131.9115    0.7396 N   0  3  0  0  0  0  0  0  0  0  0  0
   19.7755  133.3285    1.2957 C   0  0  0  0  0  0  0  0  0  0  0  0
   19.4954  132.5726    2.3960 C   0  0  0  0  0  0  0  0  0  0  0  0
   18.4917  133.2055    3.0676 N   0  0  0  0  0  0  0  0  0  0  0  0
   18.1699  134.2990    2.4101 C   0  0  0  0  0  0  0  0  0  0  0  0
   18.9538  134.4114    1.3042 N   0  0  0  0  0  0  0  0  0  0  0  0
   18.9158  135.4892    0.3046 C   0  0  0  0  0  0  0  0  0  0  0  0
   20.8933  132.7623   -2.2675 C   0  0  0  0  0  0  0  0  0  0  0  0
   20.2762  132.4479   -3.4737 C   0  0  0  0  0  0  0  0  0  0  0  0
   18.9448  132.0448   -3.4896 C   0  0  0  0  0  0  0  0  0  0  0  0
   18.2703  131.7011   -4.8077 C   0  0  0  0  0  0  0  0  0  0  0  0
   17.7566  131.4394   -5.8111 N   0  0  0  0  0  0  0  0  0  0  0  0
   16.0632  133.5779   -3.2107 C   0  0  0  0  0  0  0  0  0  0  0  0
   16.4452  135.6457   -5.0891 C   0  0  0  0  0  0  0  0  0  0  0  0
   17.0596  136.9435   -5.6126 C   0  0  0  0  0  0  0  0  0  0  0  0
   17.8021  137.8020   -4.5845 C   0  0  0  0  0  0  0  0  0  0  0  0
   16.9681  138.5588   -3.5398 C   0  0  0  0  0  0  0  0  0  0  0  0
   16.0121  137.8232   -2.6697 N   0  0  0  0  0  0  0  0  0  0  0  0
   15.8103  138.4323   -1.3467 C   0  0  0  0  0  0  0  0  0  0  0  0
   15.2735  136.6334   -2.9269 C   0  0  0  0  0  0  0  0  0  0  0  0
   14.5611  136.2610   -2.0061 O   0  0  0  0  0  0  0  0  0  0  0  0
   13.1970  135.9758   -6.9325 H   0  0  0  0  0  0  0  0  0  0  0  0
   14.8257  135.8592   -6.9521 H   0  0  0  0  0  0  0  0  0  0  0  0
   13.9247  134.6148   -6.3984 H   0  0  0  0  0  0  0  0  0  0  0  0
   13.2086  135.9504   -4.5623 H   0  0  0  0  0  0  0  0  0  0  0  0
   14.1097  137.1947   -5.1160 H   0  0  0  0  0  0  0  0  0  0  0  0
   12.9549  134.2751   -4.1638 H   0  0  0  0  0  0  0  0  0  0  0  0
   12.6238  132.0238   -3.4292 H   0  0  0  0  0  0  0  0  0  0  0  0
   14.4474  130.7476   -2.5576 H   0  0  0  0  0  0  0  0  0  0  0  0
   18.3243  132.2046   -0.2311 H   0  0  0  0  0  0  0  0  0  0  0  0
   22.2110  134.4978    0.8273 H   0  0  0  0  0  0  0  0  0  0  0  0
   22.4309  134.0116   -0.7161 H   0  0  0  0  0  0  0  0  0  0  0  0
   21.1908  135.0061   -0.3421 H   0  0  0  0  0  0  0  0  0  0  0  0
   22.3833  131.6849    0.0558 H   0  0  0  0  0  0  0  0  0  0  0  0
   22.1377  132.1961    1.5871 H   0  0  0  0  0  0  0  0  0  0  0  0
   21.1211  131.1082    0.9166 H   0  0  0  0  0  0  0  0  0  0  0  0
   19.9413  131.7173    2.6598 H   0  0  0  0  0  0  0  0  0  0  0  0
   17.4586  134.9473    2.6816 H   0  0  0  0  0  0  0  0  0  0  0  0
   19.6035  135.3147   -0.4001 H   0  0  0  0  0  0  0  0  0  0  0  0
   18.0090  135.5222   -0.1156 H   0  0  0  0  0  0  0  0  0  0  0  0
   19.1090  136.3636    0.7497 H   0  0  0  0  0  0  0  0  0  0  0  0
   21.8500  133.0526   -2.2518 H   0  0  0  0  0  0  0  0  0  0  0  0
   20.7896  132.5116   -4.3295 H   0  0  0  0  0  0  0  0  0  0  0  0
   16.9729  133.9892   -3.1530 H   0  0  0  0  0  0  0  0  0  0  0  0
   16.1809  135.1016   -5.8855 H   0  0  0  0  0  0  0  0  0  0  0  0
   17.1589  135.1654   -4.5793 H   0  0  0  0  0  0  0  0  0  0  0  0
   16.3211  137.4977   -5.9966 H   0  0  0  0  0  0  0  0  0  0  0  0
   17.7076  136.7045   -6.3357 H   0  0  0  0  0  0  0  0  0  0  0  0
   18.3315  138.4820   -5.0917 H   0  0  0  0  0  0  0  0  0  0  0  0
   18.4248  137.1981   -4.0870 H   0  0  0  0  0  0  0  0  0  0  0  0
   16.4358  139.2435   -4.0375 H   0  0  0  0  0  0  0  0  0  0  0  0
   17.6160  139.0177   -2.9318 H   0  0  0  0  0  0  0  0  0  0  0  0
   15.1584  137.8838   -0.8231 H   0  0  0  0  0  0  0  0  0  0  0  0
   16.6829  138.4679   -0.8594 H   0  0  0  0  0  0  0  0  0  0  0  0
   15.4524  139.3595   -1.4576 H   0  0  0  0  0  0  0  0  0  0  0  0
  1  2  1  0  0  0  0
  2  3  1  0  0  0  0
  3  4  1  0  0  0  0
  4  5  2  0  0  0  0
  5  6  1  0  0  0  0
  6  7  2  0  0  0  0
  7  8  1  0  0  0  0
  8  9  1  0  0  0  0
  9 10  1  0  0  0  0
 10 11  2  0  0  0  0
 11 12  1  0  0  0  0
 12 13  1  0  0  0  0
 13 14  1  0  0  0  0
 13 15  1  0  0  0  0
 13 16  1  0  0  0  0
 16 17  2  0  0  0  0
 17 18  1  0  0  0  0
 18 19  2  0  0  0  0
 19 20  1  0  0  0  0
 20 21  1  0  0  0  0
 12 22  2  0  0  0  0
 22 23  1  0  0  0  0
 23 24  2  0  0  0  0
 24 25  1  0  0  0  0
 25 26  3  0  0  0  0
  8 27  2  0  0  0  0
  3 28  1  0  0  0  0
 28 29  1  0  0  0  0
 29 30  1  0  0  0  0
 30 31  1  0  0  0  0
 31 32  1  0  0  0  0
 32 33  1  0  0  0  0
 32 34  1  0  0  0  0
 34 35  2  0  0  0  0
 34  3  1  0  0  0  0
 27  4  1  0  0  0  0
 24 10  1  0  0  0  0
 20 16  1  0  0  0  0
  1 36  1  0  0  0  0
  1 37  1  0  0  0  0
  1 38  1  0  0  0  0
  2 39  1  0  0  0  0
  2 40  1  0  0  0  0
  5 41  1  0  0  0  0
  6 42  1  0  0  0  0
  7 43  1  0  0  0  0
 11 44  1  0  0  0  0
 14 45  1  0  0  0  0
 14 46  1  0  0  0  0
 14 47  1  0  0  0  0
 15 48  1  0  0  0  0
 15 49  1  0  0  0  0
 15 50  1  0  0  0  0
 17 51  1  0  0  0  0
 19 52  1  0  0  0  0
 21 53  1  0  0  0  0
 21 54  1  0  0  0  0
 21 55  1  0  0  0  0
 22 56  1  0  0  0  0
 23 57  1  0  0  0  0
 27 58  1  0  0  0  0
 28 59  1  0  0  0  0
 28 60  1  0  0  0  0
 29 61  1  0  0  0  0
 29 62  1  0  0  0  0
 30 63  1  0  0  0  0
 30 64  1  0  0  0  0
 31 65  1  0  0  0  0
 31 66  1  0  0  0  0
 33 67  1  0  0  0  0
 33 68  1  0  0  0  0
 33 69  1  0  0  0  0
M  CHG  1  15   1
M  END
> <BIOSOLVEIT.HYDE_ESTIMATED_AFFINITY_LOWER_BOUNDARY [nM]>
0.318934

> <BIOSOLVEIT.HYDE_ESTIMATED_AFFINITY_UPPER_BOUNDARY [nM]>
31.687984

> <BIOSOLVEIT.HYDE_LIGAND_EFFICIENCY range: ++, +, 0, -, -->
0

> <BIOSOLVEIT.HYDE_LIGAND_LIPOPHILIC_EFFICIENCY range: ++, +, 0, -, -->
0

> <BIOSOLVEIT.INTER_CLASH range: red, yellow, green>
yellow

> <BIOSOLVEIT.INTRA_CLASH range: red, yellow, green>
green

> <BIOSOLVEIT.LOGP>
3.87958

> <BIOSOLVEIT.MOLECULAR WEIGHT>
472.61

> <BIOSOLVEIT.MOLECULE_CHECKSUM>
LTQ4LjUwNTsxLjM4NTg2

> <BIOSOLVEIT.TORSION_QUALITY range: red, yellow, green, not rotatable>
green

> <BIOSOLVEIT.TPSA>
98.79

$$$$
1MZC_BNE_2
foHydescor03192112213D 1   1.00000     0.00000     0
Hydescorer 1.1.0 fol007
 69 72  0  0  0  0            999 V2000
   13.7372  135.7721   -6.2590 C   0  0  0  0  0  0  0  0  0  0  0  0
   13.8717  136.3983   -4.8610 C   0  0  0  0  0  0  0  0  0  0  0  0
   15.1275  136.0247   -4.0902 C   0  0  1  0  0  0  0  0  0  0  0  0
   15.0429  134.5797   -3.6281 C   0  0  0  0  0  0  0  0  0  0  0  0
   13.8556  133.8705   -3.7788 C   0  0  0  0  0  0  0  0  0  0  0  0
   13.8010  132.5487   -3.3483 C   0  0  0  0  0  0  0  0  0  0  0  0
   14.9097  131.9354   -2.7746 C   0  0  0  0  0  0  0  0  0  0  0  0
   16.0869  132.6630   -2.6332 C   0  0  0  0  0  0  0  0  0  0  0  0
   17.1678  132.0748   -2.0767 O   0  0  0  0  0  0  0  0  0  0  0  0
   18.4637  132.6162   -2.0513 C   0  0  0  0  0  0  0  0  0  0  0  0
   18.8198  133.4461   -0.9934 C   0  0  0  0  0  0  0  0  0  0  0  0
   20.1013  133.9860   -0.9618 C   0  0  0  0  0  0  0  0  0  0  0  0
   20.5012  134.8946    0.1898 C   0  0  2  0  0  0  0  0  0  0  0  0
   21.1297  136.1653   -0.4302 C   0  0  0  0  0  0  0  0  0  0  0  0
   21.5042  134.2697    1.0780 N   0  3  0  0  0  0  0  0  0  0  0  0
   19.2619  135.2449    1.0277 C   0  0  0  0  0  0  0  0  0  0  0  0
   18.6013  136.4381    1.0158 C   0  0  0  0  0  0  0  0  0  0  0  0
   17.5659  136.3277    1.8960 N   0  0  0  0  0  0  0  0  0  0  0  0
   17.5897  135.1228    2.4244 C   0  0  0  0  0  0  0  0  0  0  0  0
   18.6292  134.4182    1.9018 N   0  0  0  0  0  0  0  0  0  0  0  0
   19.0041  133.0335    2.2248 C   0  0  0  0  0  0  0  0  0  0  0  0
   21.0212  133.7073   -1.9674 C   0  0  0  0  0  0  0  0  0  0  0  0
   20.6541  132.8759   -3.0204 C   0  0  0  0  0  0  0  0  0  0  0  0
   19.3753  132.3301   -3.0623 C   0  0  0  0  0  0  0  0  0  0  0  0
   18.9739  131.4216   -4.2130 C   0  0  0  0  0  0  0  0  0  0  0  0
   18.6682  130.7299   -5.0889 N   0  0  0  0  0  0  0  0  0  0  0  0
   16.1635  133.9856   -3.0568 C   0  0  0  0  0  0  0  0  0  0  0  0
   16.2891  136.0360   -5.0843 C   0  0  0  0  0  0  0  0  0  0  0  0
   16.7618  137.3809   -5.6355 C   0  0  0  0  0  0  0  0  0  0  0  0
   17.5032  138.2909   -4.6519 C   0  0  0  0  0  0  0  0  0  0  0  0
   16.6859  138.9744   -3.5453 C   0  0  0  0  0  0  0  0  0  0  0  0
   15.8528  138.1613   -2.6194 N   0  0  0  0  0  0  0  0  0  0  0  0
   15.6950  138.7465   -1.2797 C   0  0  0  0  0  0  0  0  0  0  0  0
   15.1946  136.9178   -2.8376 C   0  0  0  0  0  0  0  0  0  0  0  0
   14.5786  136.4858   -1.8742 O   0  0  0  0  0  0  0  0  0  0  0  0
   12.8836  136.0779   -6.6806 H   0  0  0  0  0  0  0  0  0  0  0  0
   14.5098  136.0559   -6.8271 H   0  0  0  0  0  0  0  0  0  0  0  0
   13.7310  134.7754   -6.1787 H   0  0  0  0  0  0  0  0  0  0  0  0
   13.0817  136.1122   -4.3188 H   0  0  0  0  0  0  0  0  0  0  0  0
   13.8605  137.3926   -4.9672 H   0  0  0  0  0  0  0  0  0  0  0  0
   13.0538  134.3040   -4.1901 H   0  0  0  0  0  0  0  0  0  0  0  0
   12.9515  132.0315   -3.4530 H   0  0  0  0  0  0  0  0  0  0  0  0
   14.8613  130.9848   -2.4681 H   0  0  0  0  0  0  0  0  0  0  0  0
   18.1645  133.6516   -0.2666 H   0  0  0  0  0  0  0  0  0  0  0  0
   21.4067  136.7903    0.2997 H   0  0  0  0  0  0  0  0  0  0  0  0
   21.9303  135.9105   -0.9726 H   0  0  0  0  0  0  0  0  0  0  0  0
   20.4584  136.6163   -1.0183 H   0  0  0  0  0  0  0  0  0  0  0  0
   22.4077  134.6493    0.8795 H   0  0  0  0  0  0  0  0  0  0  0  0
   21.2668  134.4553    2.0315 H   0  0  0  0  0  0  0  0  0  0  0  0
   21.5165  133.2817    0.9238 H   0  0  0  0  0  0  0  0  0  0  0  0
   18.8323  137.2410    0.4662 H   0  0  0  0  0  0  0  0  0  0  0  0
   16.9434  134.7783    3.1052 H   0  0  0  0  0  0  0  0  0  0  0  0
   19.8088  132.7729    1.6913 H   0  0  0  0  0  0  0  0  0  0  0  0
   19.2139  132.9637    3.2000 H   0  0  0  0  0  0  0  0  0  0  0  0
   18.2446  132.4221    2.0026 H   0  0  0  0  0  0  0  0  0  0  0  0
   21.9395  134.1017   -1.9335 H   0  0  0  0  0  0  0  0  0  0  0  0
   21.3095  132.6705   -3.7473 H   0  0  0  0  0  0  0  0  0  0  0  0
   17.0131  134.5026   -2.9521 H   0  0  0  0  0  0  0  0  0  0  0  0
   16.0145  135.4762   -5.8661 H   0  0  0  0  0  0  0  0  0  0  0  0
   17.0718  135.6117   -4.6290 H   0  0  0  0  0  0  0  0  0  0  0  0
   15.9572  137.8765   -5.9627 H   0  0  0  0  0  0  0  0  0  0  0  0
   17.3753  137.1974   -6.4035 H   0  0  0  0  0  0  0  0  0  0  0  0
   17.9414  139.0131   -5.1871 H   0  0  0  0  0  0  0  0  0  0  0  0
   18.2043  137.7360   -4.2040 H   0  0  0  0  0  0  0  0  0  0  0  0
   16.0683  139.6169   -3.9989 H   0  0  0  0  0  0  0  0  0  0  0  0
   17.3358  139.4804   -2.9783 H   0  0  0  0  0  0  0  0  0  0  0  0
   15.1258  138.1456   -0.7185 H   0  0  0  0  0  0  0  0  0  0  0  0
   16.5934  138.8490   -0.8527 H   0  0  0  0  0  0  0  0  0  0  0  0
   15.2584  139.6428   -1.3569 H   0  0  0  0  0  0  0  0  0  0  0  0
  1  2  1  0  0  0  0
  2  3  1  0  0  0  0
  3  4  1  0  0  0  0
  4  5  2  0  0  0  0
  5  6  1  0  0  0  0
  6  7  2  0  0  0  0
  7  8  1  0  0  0  0
  8  9  1  0  0  0  0
  9 10  1  0  0  0  0
 10 11  2  0  0  0  0
 11 12  1  0  0  0  0
 12 13  1  0  0  0  0
 13 14  1  0  0  0  0
 13 15  1  0  0  0  0
 13 16  1  0  0  0  0
 16 17  2  0  0  0  0
 17 18  1  0  0  0  0
 18 19  2  0  0  0  0
 19 20  1  0  0  0  0
 20 21  1  0  0  0  0
 12 22  2  0  0  0  0
 22 23  1  0  0  0  0
 23 24  2  0  0  0  0
 24 25  1  0  0  0  0
 25 26  3  0  0  0  0
  8 27  2  0  0  0  0
  3 28  1  0  0  0  0
 28 29  1  0  0  0  0
 29 30  1  0  0  0  0
 30 31  1  0  0  0  0
 31 32  1  0  0  0  0
 32 33  1  0  0  0  0
 32 34  1  0  0  0  0
 34 35  2  0  0  0  0
 34  3  1  0  0  0  0
 27  4  1  0  0  0  0
 24 10  1  0  0  0  0
 20 16  1  0  0  0  0
  1 36  1  0  0  0  0
  1 37  1  0  0  0  0
  1 38  1  0  0  0  0
  2 39  1  0  0  0  0
  2 40  1  0  0  0  0
  5 41  1  0  0  0  0
  6 42  1  0  0  0  0
  7 43  1  0  0  0  0
 11 44  1  0  0  0  0
 14 45  1  0  0  0  0
 14 46  1  0  0  0  0
 14 47  1  0  0  0  0
 15 48  1  0  0  0  0
 15 49  1  0  0  0  0
 15 50  1  0  0  0  0
 17 51  1  0  0  0  0
 19 52  1  0  0  0  0
 21 53  1  0  0  0  0
 21 54  1  0  0  0  0
 21 55  1  0  0  0  0
 22 56  1  0  0  0  0
 23 57  1  0  0  0  0
 27 58  1  0  0  0  0
 28 59  1  0  0  0  0
 28 60  1  0  0  0  0
 29 61  1  0  0  0  0
 29 62  1  0  0  0  0
 30 63  1  0  0  0  0
 30 64  1  0  0  0  0
 31 65  1  0  0  0  0
 31 66  1  0  0  0  0
 33 67  1  0  0  0  0
 33 68  1  0  0  0  0
 33 69  1  0  0  0  0
M  CHG  1  15   1
M  END
> <BIOSOLVEIT.HYDE_ESTIMATED_AFFINITY_LOWER_BOUNDARY [nM]>
416887.255589

> <BIOSOLVEIT.HYDE_ESTIMATED_AFFINITY_UPPER_BOUNDARY [nM]>
41420213.675336

> <BIOSOLVEIT.HYDE_LIGAND_EFFICIENCY range: ++, +, 0, -, -->
--

> <BIOSOLVEIT.HYDE_LIGAND_LIPOPHILIC_EFFICIENCY range: ++, +, 0, -, -->
--

> <BIOSOLVEIT.INTER_CLASH range: red, yellow, green>
green

> <BIOSOLVEIT.INTRA_CLASH range: red, yellow, green>
green

> <BIOSOLVEIT.LOGP>
3.87958

> <BIOSOLVEIT.MOLECULAR WEIGHT>
472.61

> <BIOSOLVEIT.MOLECULE_CHECKSUM>
LTEzLjU5MzswLjM4ODM3

> <BIOSOLVEIT.TORSION_QUALITY range: red, yellow, green, not rotatable>
green

> <BIOSOLVEIT.TPSA>
98.79

$$$$
1MZC_BNE_3
foHydescor03192112213D 1   1.00000     0.00000     0
Hydescorer 1.1.0 fol007
 69 72  0  0  0  0            999 V2000
   19.3747  135.7125   -4.7425 C   0  0  0  0  0  0  0  0  0  0  0  0
   18.3856  135.4565   -5.8918 C   0  0  0  0  0  0  0  0  0  0  0  0
   17.2124  136.4199   -5.9781 C   0  0  1  0  0  0  0  0  0  0  0  0
   16.0998  135.8320   -5.1264 C   0  0  0  0  0  0  0  0  0  0  0  0
   14.9034  135.4416   -5.7191 C   0  0  0  0  0  0  0  0  0  0  0  0
   13.8986  134.9058   -4.9200 C   0  0  0  0  0  0  0  0  0  0  0  0
   14.0759  134.7584   -3.5483 C   0  0  0  0  0  0  0  0  0  0  0  0
   15.2801  135.1554   -2.9760 C   0  0  0  0  0  0  0  0  0  0  0  0
   15.4670  135.0105   -1.5932 O   0  0  0  0  0  0  0  0  0  0  0  0
   16.5365  135.4546   -0.8996 C   0  0  0  0  0  0  0  0  0  0  0  0
   16.5870  136.7968   -0.5376 C   0  0  0  0  0  0  0  0  0  0  0  0
   17.6861  137.2616    0.1771 C   0  0  0  0  0  0  0  0  0  0  0  0
   17.7517  138.7266    0.5778 C   0  0  2  0  0  0  0  0  0  0  0  0
   16.5319  139.4292   -0.0641 C   0  0  0  0  0  0  0  0  0  0  0  0
   18.9782  139.3903    0.0867 N   0  3  0  0  0  0  0  0  0  0  0  0
   17.7149  138.8469    2.1091 C   0  0  0  0  0  0  0  0  0  0  0  0
   17.6516  137.8077    2.9903 C   0  0  0  0  0  0  0  0  0  0  0  0
   17.6409  138.3484    4.2419 N   0  0  0  0  0  0  0  0  0  0  0  0
   17.6946  139.6587    4.1346 C   0  0  0  0  0  0  0  0  0  0  0  0
   17.7484  140.0049    2.8203 N   0  0  0  0  0  0  0  0  0  0  0  0
   17.8195  141.3673    2.2715 C   0  0  0  0  0  0  0  0  0  0  0  0
   18.7251  136.4063    0.5298 C   0  0  0  0  0  0  0  0  0  0  0  0
   18.6639  135.0662    0.1625 C   0  0  0  0  0  0  0  0  0  0  0  0
   17.5694  134.5902   -0.5522 C   0  0  0  0  0  0  0  0  0  0  0  0
   17.5059  133.2015   -0.9328 C   0  0  0  0  0  0  0  0  0  0  0  0
   17.4545  132.0867   -1.2384 N   0  0  0  0  0  0  0  0  0  0  0  0
   16.2980  135.6932   -3.7564 C   0  0  0  0  0  0  0  0  0  0  0  0
   17.7126  137.7398   -5.3774 C   0  0  0  0  0  0  0  0  0  0  0  0
   16.7197  138.8797   -5.1222 C   0  0  0  0  0  0  0  0  0  0  0  0
   15.5023  139.0206   -6.0431 C   0  0  0  0  0  0  0  0  0  0  0  0
   15.7221  138.8592   -7.5530 C   0  0  0  0  0  0  0  0  0  0  0  0
   16.0554  137.5183   -8.0981 N   0  0  0  0  0  0  0  0  0  0  0  0
   15.6615  137.2848   -9.4959 C   0  0  0  0  0  0  0  0  0  0  0  0
   16.7062  136.4501   -7.4280 C   0  0  0  0  0  0  0  0  0  0  0  0
   16.8877  135.4360   -8.0822 O   0  0  0  0  0  0  0  0  0  0  0  0
   20.1047  135.0298   -4.7727 H   0  0  0  0  0  0  0  0  0  0  0  0
   19.7687  136.6265   -4.8393 H   0  0  0  0  0  0  0  0  0  0  0  0
   18.8938  135.6478   -3.8682 H   0  0  0  0  0  0  0  0  0  0  0  0
   18.0176  134.5333   -5.7807 H   0  0  0  0  0  0  0  0  0  0  0  0
   18.8927  135.5120   -6.7519 H   0  0  0  0  0  0  0  0  0  0  0  0
   14.7677  135.5445   -6.7045 H   0  0  0  0  0  0  0  0  0  0  0  0
   13.0355  134.6224   -5.3381 H   0  0  0  0  0  0  0  0  0  0  0  0
   13.3481  134.3724   -2.9816 H   0  0  0  0  0  0  0  0  0  0  0  0
   15.8443  137.4181   -0.7874 H   0  0  0  0  0  0  0  0  0  0  0  0
   16.5405  140.3995    0.1781 H   0  0  0  0  0  0  0  0  0  0  0  0
   16.5771  139.3335   -1.0585 H   0  0  0  0  0  0  0  0  0  0  0  0
   15.6895  139.0090    0.2733 H   0  0  0  0  0  0  0  0  0  0  0  0
   18.7758  140.3449   -0.1321 H   0  0  0  0  0  0  0  0  0  0  0  0
   19.6836  139.3529    0.7944 H   0  0  0  0  0  0  0  0  0  0  0  0
   19.3046  138.9221   -0.7344 H   0  0  0  0  0  0  0  0  0  0  0  0
   17.6193  136.8347    2.7618 H   0  0  0  0  0  0  0  0  0  0  0  0
   17.6957  140.3010    4.9010 H   0  0  0  0  0  0  0  0  0  0  0  0
   17.8482  141.3234    1.2729 H   0  0  0  0  0  0  0  0  0  0  0  0
   17.0140  141.8851    2.5594 H   0  0  0  0  0  0  0  0  0  0  0  0
   18.6449  141.8199    2.6091 H   0  0  0  0  0  0  0  0  0  0  0  0
   19.5101  136.7524    1.0437 H   0  0  0  0  0  0  0  0  0  0  0  0
   19.4066  134.4448    0.4121 H   0  0  0  0  0  0  0  0  0  0  0  0
   17.1611  135.9764   -3.3382 H   0  0  0  0  0  0  0  0  0  0  0  0
   18.4101  138.0960   -5.9992 H   0  0  0  0  0  0  0  0  0  0  0  0
   18.1325  137.5178   -4.4974 H   0  0  0  0  0  0  0  0  0  0  0  0
   17.2335  139.7355   -5.1817 H   0  0  0  0  0  0  0  0  0  0  0  0
   16.3721  138.7635   -4.1918 H   0  0  0  0  0  0  0  0  0  0  0  0
   15.1197  139.9323   -5.8936 H   0  0  0  0  0  0  0  0  0  0  0  0
   14.8359  138.3294   -5.7637 H   0  0  0  0  0  0  0  0  0  0  0  0
   16.4709  139.4718   -7.8062 H   0  0  0  0  0  0  0  0  0  0  0  0
   14.8808  139.1570   -8.0041 H   0  0  0  0  0  0  0  0  0  0  0  0
   15.9278  136.3599   -9.7672 H   0  0  0  0  0  0  0  0  0  0  0  0
   14.6705  137.3858   -9.5843 H   0  0  0  0  0  0  0  0  0  0  0  0
   16.1183  137.9498  -10.0865 H   0  0  0  0  0  0  0  0  0  0  0  0
  1  2  1  0  0  0  0
  2  3  1  0  0  0  0
  3  4  1  0  0  0  0
  4  5  2  0  0  0  0
  5  6  1  0  0  0  0
  6  7  2  0  0  0  0
  7  8  1  0  0  0  0
  8  9  1  0  0  0  0
  9 10  1  0  0  0  0
 10 11  2  0  0  0  0
 11 12  1  0  0  0  0
 12 13  1  0  0  0  0
 13 14  1  0  0  0  0
 13 15  1  0  0  0  0
 13 16  1  0  0  0  0
 16 17  2  0  0  0  0
 17 18  1  0  0  0  0
 18 19  2  0  0  0  0
 19 20  1  0  0  0  0
 20 21  1  0  0  0  0
 12 22  2  0  0  0  0
 22 23  1  0  0  0  0
 23 24  2  0  0  0  0
 24 25  1  0  0  0  0
 25 26  3  0  0  0  0
  8 27  2  0  0  0  0
  3 28  1  0  0  0  0
 28 29  1  0  0  0  0
 29 30  1  0  0  0  0
 30 31  1  0  0  0  0
 31 32  1  0  0  0  0
 32 33  1  0  0  0  0
 32 34  1  0  0  0  0
 34 35  2  0  0  0  0
 34  3  1  0  0  0  0
 27  4  1  0  0  0  0
 24 10  1  0  0  0  0
 20 16  1  0  0  0  0
  1 36  1  0  0  0  0
  1 37  1  0  0  0  0
  1 38  1  0  0  0  0
  2 39  1  0  0  0  0
  2 40  1  0  0  0  0
  5 41  1  0  0  0  0
  6 42  1  0  0  0  0
  7 43  1  0  0  0  0
 11 44  1  0  0  0  0
 14 45  1  0  0  0  0
 14 46  1  0  0  0  0
 14 47  1  0  0  0  0
 15 48  1  0  0  0  0
 15 49  1  0  0  0  0
 15 50  1  0  0  0  0
 17 51  1  0  0  0  0
 19 52  1  0  0  0  0
 21 53  1  0  0  0  0
 21 54  1  0  0  0  0
 21 55  1  0  0  0  0
 22 56  1  0  0  0  0
 23 57  1  0  0  0  0
 27 58  1  0  0  0  0
 28 59  1  0  0  0  0
 28 60  1  0  0  0  0
 29 61  1  0  0  0  0
 29 62  1  0  0  0  0
 30 63  1  0  0  0  0
 30 64  1  0  0  0  0
 31 65  1  0  0  0  0
 31 66  1  0  0  0  0
 33 67  1  0  0  0  0
 33 68  1  0  0  0  0
 33 69  1  0  0  0  0
M  CHG  1  15   1
M  END
> <BIOSOLVEIT.HYDE_ESTIMATED_AFFINITY_LOWER_BOUNDARY [nM]>
69749310.056096

> <BIOSOLVEIT.HYDE_ESTIMATED_AFFINITY_UPPER_BOUNDARY [nM]>
6930006344.631260

> <BIOSOLVEIT.HYDE_LIGAND_EFFICIENCY range: ++, +, 0, -, -->
--

> <BIOSOLVEIT.HYDE_LIGAND_LIPOPHILIC_EFFICIENCY range: ++, +, 0, -, -->
--

> <BIOSOLVEIT.INTER_CLASH range: red, yellow, green>
green

> <BIOSOLVEIT.INTRA_CLASH range: red, yellow, green>
yellow

> <BIOSOLVEIT.LOGP>
3.87958

> <BIOSOLVEIT.MOLECULAR WEIGHT>
472.61

> <BIOSOLVEIT.MOLECULE_CHECKSUM>
LTAuOTAxMDg1OzAuMDI1NzQ1Mw==

> <BIOSOLVEIT.TORSION_QUALITY range: red, yellow, green, not rotatable>
green

> <BIOSOLVEIT.TPSA>
98.79

$$$$
1LD7_U66_1
foHydescor03192112213D 1   1.00000     0.00000     0
Hydescorer 1.1.0 fol007
 62 67  0  0  0  0            999 V2000
   15.4009  140.3717   -6.3130 N   0  0  0  0  0  0  0  0  0  0  0  0
   16.3251  139.8492   -5.8522 C   0  0  0  0  0  0  0  0  0  0  0  0
   17.5016  139.1836   -5.2648 C   0  0  2  0  0  0  0  0  0  0  0  0
   17.9603  138.0168   -6.1785 C   0  0  0  0  0  0  0  0  0  0  0  0
   17.2619  136.7307   -5.8305 C   0  0  0  0  0  0  0  0  0  0  0  0
   17.1431  136.3725   -4.5417 C   0  0  0  0  0  0  0  0  0  0  0  0
   17.6695  137.3184   -3.4865 C   0  0  0  0  0  0  0  0  0  0  0  0
   17.2024  138.7589   -3.7877 C   0  0  1  0  0  0  0  0  0  0  0  0
   17.8249  139.6910   -2.8965 O   0  0  0  0  0  0  0  0  0  0  0  0
   17.5208  139.7498   -1.5332 C   0  0  0  0  0  0  0  0  0  0  0  0
   16.6368  140.7220   -1.0582 C   0  0  0  0  0  0  0  0  0  0  0  0
   16.3276  140.7875    0.3032 C   0  0  0  0  0  0  0  0  0  0  0  0
   16.8803  139.8596    1.2006 C   0  0  0  0  0  0  0  0  0  0  0  0
   16.5673  139.9207    2.5665 C   0  0  0  0  0  0  0  0  0  0  0  0
   17.1105  138.9908    3.4545 C   0  0  0  0  0  0  0  0  0  0  0  0
   17.9493  137.9771    2.9876 C   0  0  0  0  0  0  0  0  0  0  0  0
   18.2644  137.8847    1.6265 C   0  0  0  0  0  0  0  0  0  0  0  0
   17.7597  138.8541    0.7237 C   0  0  0  0  0  0  0  0  0  0  0  0
   18.1116  138.8505   -0.6396 C   0  0  0  0  0  0  0  0  0  0  0  0
   19.0494  136.7713    1.1731 N   0  0  0  0  0  0  0  0  0  0  0  0
   20.5010  136.7597    1.2182 C   0  0  0  0  0  0  0  0  0  0  0  0
   20.9353  135.5721    0.3403 C   0  0  0  0  0  0  0  0  0  0  0  0
   19.7308  135.2378   -0.5635 C   0  0  1  0  0  0  0  0  0  0  0  0
   19.5934  133.7795   -0.7835 N   0  3  0  0  0  0  0  0  0  0  0  0
   18.6342  133.4160   -1.8479 C   0  0  0  0  0  0  0  0  0  0  0  0
   19.1181  133.8113   -3.2559 C   0  0  0  0  0  0  0  0  0  0  0  0
   18.1711  133.3268   -4.3175 C   0  0  0  0  0  0  0  0  0  0  0  0
   18.3371  132.1891   -5.0767 C   0  0  0  0  0  0  0  0  0  0  0  0
   17.3022  132.0671   -5.9318 N   0  0  0  0  0  0  0  0  0  0  0  0
   16.5206  133.1365   -5.6712 C   0  0  0  0  0  0  0  0  0  0  0  0
   17.0180  133.9204   -4.6930 N   0  0  0  0  0  0  0  0  0  0  0  0
   16.3814  135.1270   -4.1552 C   0  0  0  0  0  0  0  0  0  0  0  0
   18.6048  135.8458    0.1969 C   0  0  0  0  0  0  0  0  0  0  0  0
   17.3846  135.6624   -0.0566 O   0  0  0  0  0  0  0  0  0  0  0  0
   18.2435  139.8538   -5.2395 H   0  0  0  0  0  0  0  0  0  0  0  0
   18.9464  137.8895   -6.0713 H   0  0  0  0  0  0  0  0  0  0  0  0
   17.7557  138.2498   -7.1292 H   0  0  0  0  0  0  0  0  0  0  0  0
   16.8895  136.1476   -6.5525 H   0  0  0  0  0  0  0  0  0  0  0  0
   18.6691  137.2882   -3.4838 H   0  0  0  0  0  0  0  0  0  0  0  0
   17.3251  137.0393   -2.5902 H   0  0  0  0  0  0  0  0  0  0  0  0
   16.2136  138.8027   -3.6445 H   0  0  0  0  0  0  0  0  0  0  0  0
   16.2238  141.3733   -1.6947 H   0  0  0  0  0  0  0  0  0  0  0  0
   15.7099  141.4983    0.6397 H   0  0  0  0  0  0  0  0  0  0  0  0
   15.9527  140.6330    2.9054 H   0  0  0  0  0  0  0  0  0  0  0  0
   16.8980  139.0510    4.4297 H   0  0  0  0  0  0  0  0  0  0  0  0
   18.3281  137.3114    3.6306 H   0  0  0  0  0  0  0  0  0  0  0  0
   18.7917  138.1975   -0.9728 H   0  0  0  0  0  0  0  0  0  0  0  0
   20.8197  136.6337    2.1577 H   0  0  0  0  0  0  0  0  0  0  0  0
   20.8681  137.6154    0.8536 H   0  0  0  0  0  0  0  0  0  0  0  0
   21.1677  134.7855    0.9124 H   0  0  0  0  0  0  0  0  0  0  0  0
   21.7266  135.8245   -0.2166 H   0  0  0  0  0  0  0  0  0  0  0  0
   19.8316  135.7023   -1.4433 H   0  0  0  0  0  0  0  0  0  0  0  0
   19.2872  133.3607    0.0713 H   0  0  0  0  0  0  0  0  0  0  0  0
   20.4905  133.4137   -1.0313 H   0  0  0  0  0  0  0  0  0  0  0  0
   17.7669  133.8799   -1.6672 H   0  0  0  0  0  0  0  0  0  0  0  0
   18.4936  132.4261   -1.8257 H   0  0  0  0  0  0  0  0  0  0  0  0
   20.0193  133.4082   -3.4153 H   0  0  0  0  0  0  0  0  0  0  0  0
   19.1844  134.8077   -3.3092 H   0  0  0  0  0  0  0  0  0  0  0  0
   19.1055  131.5531   -5.0047 H   0  0  0  0  0  0  0  0  0  0  0  0
   15.6647  133.3269   -6.1520 H   0  0  0  0  0  0  0  0  0  0  0  0
   16.3504  135.0613   -3.1578 H   0  0  0  0  0  0  0  0  0  0  0  0
   15.4503  135.1909   -4.5142 H   0  0  0  0  0  0  0  0  0  0  0  0
  1  2  3  0  0  0  0
  2  3  1  0  0  0  0
  3  4  1  0  0  0  0
  4  5  1  0  0  0  0
  5  6  2  0  0  0  0
  6  7  1  0  0  0  0
  7  8  1  0  0  0  0
  8  9  1  0  0  0  0
  9 10  1  0  0  0  0
 10 11  2  0  0  0  0
 11 12  1  0  0  0  0
 12 13  2  0  0  0  0
 13 14  1  0  0  0  0
 14 15  2  0  0  0  0
 15 16  1  0  0  0  0
 16 17  2  0  0  0  0
 17 18  1  0  0  0  0
 18 19  2  0  0  0  0
 17 20  1  0  0  0  0
 20 21  1  0  0  0  0
 21 22  1  0  0  0  0
 22 23  1  0  0  0  0
 23 24  1  0  0  0  0
 24 25  1  0  0  0  0
 25 26  1  0  0  0  0
 26 27  1  0  0  0  0
 27 28  2  0  0  0  0
 28 29  1  0  0  0  0
 29 30  2  0  0  0  0
 30 31  1  0  0  0  0
 31 32  1  0  0  0  0
 23 33  1  0  0  0  0
 33 34  2  0  0  0  0
  8  3  1  0  0  0  0
 19 10  1  0  0  0  0
 33 20  1  0  0  0  0
 32  6  1  0  0  0  0
 18 13  1  0  0  0  0
 31 27  1  0  0  0  0
  3 35  1  0  0  0  0
  4 36  1  0  0  0  0
  4 37  1  0  0  0  0
  5 38  1  0  0  0  0
  7 39  1  0  0  0  0
  7 40  1  0  0  0  0
  8 41  1  0  0  0  0
 11 42  1  0  0  0  0
 12 43  1  0  0  0  0
 14 44  1  0  0  0  0
 15 45  1  0  0  0  0
 16 46  1  0  0  0  0
 19 47  1  0  0  0  0
 21 48  1  0  0  0  0
 21 49  1  0  0  0  0
 22 50  1  0  0  0  0
 22 51  1  0  0  0  0
 23 52  1  0  0  0  0
 24 53  1  0  0  0  0
 24 54  1  0  0  0  0
 25 55  1  0  0  0  0
 25 56  1  0  0  0  0
 26 57  1  0  0  0  0
 26 58  1  0  0  0  0
 28 59  1  0  0  0  0
 30 60  1  0  0  0  0
 32 61  1  0  0  0  0
 32 62  1  0  0  0  0
M  CHG  1  24   1
M  END
> <BIOSOLVEIT.HYDE_ESTIMATED_AFFINITY_LOWER_BOUNDARY [nM]>
737477.476857

> <BIOSOLVEIT.HYDE_ESTIMATED_AFFINITY_UPPER_BOUNDARY [nM]>
73272747.637671

> <BIOSOLVEIT.HYDE_LIGAND_EFFICIENCY range: ++, +, 0, -, -->
--

> <BIOSOLVEIT.HYDE_LIGAND_LIPOPHILIC_EFFICIENCY range: ++, +, 0, -, -->
--

> <BIOSOLVEIT.INTER_CLASH range: red, yellow, green>
green

> <BIOSOLVEIT.INTRA_CLASH range: red, yellow, green>
green

> <BIOSOLVEIT.LOGP>
2.56868

> <BIOSOLVEIT.MOLECULAR WEIGHT>
454.551

> <BIOSOLVEIT.MOLECULE_CHECKSUM>
LTEyLjE3ODk7MC4zNTgyMDM=

> <BIOSOLVEIT.TORSION_QUALITY range: red, yellow, green, not rotatable>
not rotatable

> <BIOSOLVEIT.TPSA>
87.76

$$$$
1LD7_U66_2
foHydescor03192112213D 1   1.00000     0.00000     0
Hydescorer 1.1.0 fol007
 62 67  0  0  0  0            999 V2000
   24.5621  134.3936   -3.3664 N   0  0  0  0  0  0  0  0  0  0  0  0
   23.8538  135.1117   -2.7990 C   0  0  0  0  0  0  0  0  0  0  0  0
   22.9515  136.0262   -2.0766 C   0  0  2  0  0  0  0  0  0  0  0  0
   22.8994  135.6411   -0.5749 C   0  0  0  0  0  0  0  0  0  0  0  0
   21.8258  134.6241   -0.2984 C   0  0  0  0  0  0  0  0  0  0  0  0
   20.6081  134.7867   -0.8410 C   0  0  0  0  0  0  0  0  0  0  0  0
   20.3887  135.9647   -1.7626 C   0  0  0  0  0  0  0  0  0  0  0  0
   21.5502  136.0674   -2.7746 C   0  0  1  0  0  0  0  0  0  0  0  0
   21.4461  137.2692   -3.5462 O   0  0  0  0  0  0  0  0  0  0  0  0
   20.4414  137.4705   -4.4974 C   0  0  0  0  0  0  0  0  0  0  0  0
   20.7158  137.2722   -5.8530 C   0  0  0  0  0  0  0  0  0  0  0  0
   19.7171  137.4713   -6.8101 C   0  0  0  0  0  0  0  0  0  0  0  0
   18.4221  137.8445   -6.4153 C   0  0  0  0  0  0  0  0  0  0  0  0
   17.4171  138.0399   -7.3741 C   0  0  0  0  0  0  0  0  0  0  0  0
   16.1283  138.4013   -6.9779 C   0  0  0  0  0  0  0  0  0  0  0  0
   15.8221  138.5464   -5.6236 C   0  0  0  0  0  0  0  0  0  0  0  0
   16.8034  138.3414   -4.6462 C   0  0  0  0  0  0  0  0  0  0  0  0
   18.1279  138.0245   -5.0395 C   0  0  0  0  0  0  0  0  0  0  0  0
   19.1669  137.8868   -4.0993 C   0  0  0  0  0  0  0  0  0  0  0  0
   16.4243  138.4037   -3.2627 N   0  0  0  0  0  0  0  0  0  0  0  0
   16.3505  139.6500   -2.5208 C   0  0  0  0  0  0  0  0  0  0  0  0
   16.2582  139.2470   -1.0380 C   0  0  0  0  0  0  0  0  0  0  0  0
   16.7664  137.7931   -0.9515 C   0  0  1  0  0  0  0  0  0  0  0  0
   16.0078  137.0012    0.0441 N   0  3  0  0  0  0  0  0  0  0  0  0
   16.6156  135.6929    0.3666 C   0  0  0  0  0  0  0  0  0  0  0  0
   17.9406  135.8189    1.1420 C   0  0  0  0  0  0  0  0  0  0  0  0
   18.4688  134.4717    1.5480 C   0  0  0  0  0  0  0  0  0  0  0  0
   18.3228  133.8988    2.7925 C   0  0  0  0  0  0  0  0  0  0  0  0
   18.9255  132.6930    2.8030 N   0  0  0  0  0  0  0  0  0  0  0  0
   19.4247  132.5537    1.5566 C   0  0  0  0  0  0  0  0  0  0  0  0
   19.1618  133.6152    0.7674 N   0  0  0  0  0  0  0  0  0  0  0  0
   19.5322  133.7450   -0.6455 C   0  0  0  0  0  0  0  0  0  0  0  0
   16.5943  137.3290   -2.3552 C   0  0  0  0  0  0  0  0  0  0  0  0
   16.6988  136.1323   -2.7344 O   0  0  0  0  0  0  0  0  0  0  0  0
   23.3436  136.9441   -2.1373 H   0  0  0  0  0  0  0  0  0  0  0  0
   22.7142  136.4627   -0.0358 H   0  0  0  0  0  0  0  0  0  0  0  0
   23.7841  135.2593   -0.3073 H   0  0  0  0  0  0  0  0  0  0  0  0
   22.0172  133.8342    0.2842 H   0  0  0  0  0  0  0  0  0  0  0  0
   20.3455  136.8047   -1.2217 H   0  0  0  0  0  0  0  0  0  0  0  0
   19.5283  135.8422   -2.2574 H   0  0  0  0  0  0  0  0  0  0  0  0
   21.4896  135.2890   -3.3994 H   0  0  0  0  0  0  0  0  0  0  0  0
   21.6304  136.9867   -6.1394 H   0  0  0  0  0  0  0  0  0  0  0  0
   19.9255  137.3474   -7.7802 H   0  0  0  0  0  0  0  0  0  0  0  0
   17.6247  137.9199   -8.3450 H   0  0  0  0  0  0  0  0  0  0  0  0
   15.4211  138.5570   -7.6674 H   0  0  0  0  0  0  0  0  0  0  0  0
   14.8942  138.7988   -5.3493 H   0  0  0  0  0  0  0  0  0  0  0  0
   18.9915  138.0889   -3.1358 H   0  0  0  0  0  0  0  0  0  0  0  0
   15.5404  140.1698   -2.7920 H   0  0  0  0  0  0  0  0  0  0  0  0
   17.1694  140.2008   -2.6821 H   0  0  0  0  0  0  0  0  0  0  0  0
   15.3108  139.3019   -0.7227 H   0  0  0  0  0  0  0  0  0  0  0  0
   16.8307  139.8477   -0.4798 H   0  0  0  0  0  0  0  0  0  0  0  0
   17.7377  137.7903   -0.7135 H   0  0  0  0  0  0  0  0  0  0  0  0
   15.0894  136.8401   -0.3172 H   0  0  0  0  0  0  0  0  0  0  0  0
   15.9452  137.5347    0.8876 H   0  0  0  0  0  0  0  0  0  0  0  0
   16.7918  135.2041   -0.4879 H   0  0  0  0  0  0  0  0  0  0  0  0
   15.9696  135.1700    0.9227 H   0  0  0  0  0  0  0  0  0  0  0  0
   17.7861  136.3686    1.9630 H   0  0  0  0  0  0  0  0  0  0  0  0
   18.6163  136.2714    0.5602 H   0  0  0  0  0  0  0  0  0  0  0  0
   17.8445  134.3128    3.5669 H   0  0  0  0  0  0  0  0  0  0  0  0
   19.9349  131.7497    1.2512 H   0  0  0  0  0  0  0  0  0  0  0  0
   18.7235  134.0103   -1.1706 H   0  0  0  0  0  0  0  0  0  0  0  0
   19.8694  132.8632   -0.9755 H   0  0  0  0  0  0  0  0  0  0  0  0
  1  2  3  0  0  0  0
  2  3  1  0  0  0  0
  3  4  1  0  0  0  0
  4  5  1  0  0  0  0
  5  6  2  0  0  0  0
  6  7  1  0  0  0  0
  7  8  1  0  0  0  0
  8  9  1  0  0  0  0
  9 10  1  0  0  0  0
 10 11  2  0  0  0  0
 11 12  1  0  0  0  0
 12 13  2  0  0  0  0
 13 14  1  0  0  0  0
 14 15  2  0  0  0  0
 15 16  1  0  0  0  0
 16 17  2  0  0  0  0
 17 18  1  0  0  0  0
 18 19  2  0  0  0  0
 17 20  1  0  0  0  0
 20 21  1  0  0  0  0
 21 22  1  0  0  0  0
 22 23  1  0  0  0  0
 23 24  1  0  0  0  0
 24 25  1  0  0  0  0
 25 26  1  0  0  0  0
 26 27  1  0  0  0  0
 27 28  2  0  0  0  0
 28 29  1  0  0  0  0
 29 30  2  0  0  0  0
 30 31  1  0  0  0  0
 31 32  1  0  0  0  0
 23 33  1  0  0  0  0
 33 34  2  0  0  0  0
  8  3  1  0  0  0  0
 19 10  1  0  0  0  0
 33 20  1  0  0  0  0
 32  6  1  0  0  0  0
 18 13  1  0  0  0  0
 31 27  1  0  0  0  0
  3 35  1  0  0  0  0
  4 36  1  0  0  0  0
  4 37  1  0  0  0  0
  5 38  1  0  0  0  0
  7 39  1  0  0  0  0
  7 40  1  0  0  0  0
  8 41  1  0  0  0  0
 11 42  1  0  0  0  0
 12 43  1  0  0  0  0
 14 44  1  0  0  0  0
 15 45  1  0  0  0  0
 16 46  1  0  0  0  0
 19 47  1  0  0  0  0
 21 48  1  0  0  0  0
 21 49  1  0  0  0  0
 22 50  1  0  0  0  0
 22 51  1  0  0  0  0
 23 52  1  0  0  0  0
 24 53  1  0  0  0  0
 24 54  1  0  0  0  0
 25 55  1  0  0  0  0
 25 56  1  0  0  0  0
 26 57  1  0  0  0  0
 26 58  1  0  0  0  0
 28 59  1  0  0  0  0
 30 60  1  0  0  0  0
 32 61  1  0  0  0  0
 32 62  1  0  0  0  0
M  CHG  1  24   1
M  END
> <BIOSOLVEIT.HYDE_ESTIMATED_AFFINITY_LOWER_BOUNDARY [nM]>
157156492341749.250000

> <BIOSOLVEIT.HYDE_ESTIMATED_AFFINITY_UPPER_BOUNDARY [nM]>
15614426696872176.000000

> <BIOSOLVEIT.HYDE_LIGAND_EFFICIENCY range: ++, +, 0, -, -->
--

> <BIOSOLVEIT.HYDE_LIGAND_LIPOPHILIC_EFFICIENCY range: ++, +, 0, -, -->
--

> <BIOSOLVEIT.INTER_CLASH range: red, yellow, green>
yellow

> <BIOSOLVEIT.INTRA_CLASH range: red, yellow, green>
green

> <BIOSOLVEIT.LOGP>
2.56868

> <BIOSOLVEIT.MOLECULAR WEIGHT>
454.551

> <BIOSOLVEIT.MOLECULE_CHECKSUM>
MzUuMzYwNzsw

> <BIOSOLVEIT.TORSION_QUALITY range: red, yellow, green, not rotatable>
not rotatable

> <BIOSOLVEIT.TPSA>
87.76

$$$$
1LD7_U66_3
foHydescor03192112213D 1   1.00000     0.00000     0
Hydescorer 1.1.0 fol007
 62 67  0  0  0  0            999 V2000
   15.1624  139.8505   -7.0046 N   0  0  0  0  0  0  0  0  0  0  0  0
   15.8709  138.9401   -6.9110 C   0  0  0  0  0  0  0  0  0  0  0  0
   16.7733  137.7810   -6.7915 C   0  0  2  0  0  0  0  0  0  0  0  0
   15.9890  136.4700   -7.0604 C   0  0  0  0  0  0  0  0  0  0  0  0
   15.3785  135.9189   -5.8006 C   0  0  0  0  0  0  0  0  0  0  0  0
   16.1142  135.8694   -4.6782 C   0  0  0  0  0  0  0  0  0  0  0  0
   17.5169  136.4315   -4.7188 C   0  0  0  0  0  0  0  0  0  0  0  0
   17.5136  137.8112   -5.4118 C   0  0  1  0  0  0  0  0  0  0  0  0
   18.8509  138.2839   -5.6077 O   0  0  0  0  0  0  0  0  0  0  0  0
   19.6723  138.6842   -4.5494 C   0  0  0  0  0  0  0  0  0  0  0  0
   19.8178  140.0425   -4.2560 C   0  0  0  0  0  0  0  0  0  0  0  0
   20.6368  140.4510   -3.1998 C   0  0  0  0  0  0  0  0  0  0  0  0
   21.2979  139.4990   -2.4072 C   0  0  0  0  0  0  0  0  0  0  0  0
   22.1164  139.9068   -1.3436 C   0  0  0  0  0  0  0  0  0  0  0  0
   22.7644  138.9578   -0.5512 C   0  0  0  0  0  0  0  0  0  0  0  0
   22.5834  137.5949   -0.7941 C   0  0  0  0  0  0  0  0  0  0  0  0
   21.7589  137.1618   -1.8395 C   0  0  0  0  0  0  0  0  0  0  0  0
   21.1370  138.1169   -2.6824 C   0  0  0  0  0  0  0  0  0  0  0  0
   20.3633  137.7315   -3.7939 C   0  0  0  0  0  0  0  0  0  0  0  0
   21.5210  135.7543   -1.9942 N   0  0  0  0  0  0  0  0  0  0  0  0
   22.4220  134.8776   -2.7215 C   0  0  0  0  0  0  0  0  0  0  0  0
   21.6416  133.5694   -2.9426 C   0  0  0  0  0  0  0  0  0  0  0  0
   20.1506  133.9167   -2.7537 C   0  0  1  0  0  0  0  0  0  0  0  0
   19.4084  132.8213   -2.0883 N   0  3  0  0  0  0  0  0  0  0  0  0
   17.9388  132.9779   -2.1229 C   0  0  0  0  0  0  0  0  0  0  0  0
   17.3495  132.8220   -3.5376 C   0  0  0  0  0  0  0  0  0  0  0  0
   15.8477  132.8762   -3.5151 C   0  0  0  0  0  0  0  0  0  0  0  0
   15.0089  131.7835   -3.5397 C   0  0  0  0  0  0  0  0  0  0  0  0
   13.7279  132.2026   -3.5150 N   0  0  0  0  0  0  0  0  0  0  0  0
   13.8135  133.5490   -3.4709 C   0  0  0  0  0  0  0  0  0  0  0  0
   15.0876  133.9911   -3.4662 N   0  0  0  0  0  0  0  0  0  0  0  0
   15.5076  135.3934   -3.3797 C   0  0  0  0  0  0  0  0  0  0  0  0
   20.2315  135.1690   -1.9532 C   0  0  0  0  0  0  0  0  0  0  0  0
   19.2520  135.7266   -1.3901 O   0  0  0  0  0  0  0  0  0  0  0  0
   17.4676  137.8669   -7.5060 H   0  0  0  0  0  0  0  0  0  0  0  0
   16.6153  135.7899   -7.4415 H   0  0  0  0  0  0  0  0  0  0  0  0
   15.2600  136.6576   -7.7187 H   0  0  0  0  0  0  0  0  0  0  0  0
   14.4333  135.5923   -5.7991 H   0  0  0  0  0  0  0  0  0  0  0  0
   18.1093  135.8068   -5.2276 H   0  0  0  0  0  0  0  0  0  0  0  0
   17.8610  136.5307   -3.7851 H   0  0  0  0  0  0  0  0  0  0  0  0
   17.0379  138.4584   -4.8163 H   0  0  0  0  0  0  0  0  0  0  0  0
   19.3339  140.7250   -4.8038 H   0  0  0  0  0  0  0  0  0  0  0  0
   20.7526  141.4256   -3.0078 H   0  0  0  0  0  0  0  0  0  0  0  0
   22.2362  140.8810   -1.1522 H   0  0  0  0  0  0  0  0  0  0  0  0
   23.3610  139.2555    0.1940 H   0  0  0  0  0  0  0  0  0  0  0  0
   23.0466  136.9226   -0.2166 H   0  0  0  0  0  0  0  0  0  0  0  0
   20.3072  136.7654   -4.0459 H   0  0  0  0  0  0  0  0  0  0  0  0
   23.2482  134.7044   -2.1854 H   0  0  0  0  0  0  0  0  0  0  0  0
   22.6734  135.2862   -3.5989 H   0  0  0  0  0  0  0  0  0  0  0  0
   21.9240  132.8807   -2.2747 H   0  0  0  0  0  0  0  0  0  0  0  0
   21.8018  133.2227   -3.8668 H   0  0  0  0  0  0  0  0  0  0  0  0
   19.7359  134.1121   -3.6424 H   0  0  0  0  0  0  0  0  0  0  0  0
   19.6973  132.7823   -1.1318 H   0  0  0  0  0  0  0  0  0  0  0  0
   19.6431  131.9619   -2.5427 H   0  0  0  0  0  0  0  0  0  0  0  0
   17.7073  133.8883   -1.7798 H   0  0  0  0  0  0  0  0  0  0  0  0
   17.5304  132.2843   -1.5294 H   0  0  0  0  0  0  0  0  0  0  0  0
   17.6376  131.9420   -3.9149 H   0  0  0  0  0  0  0  0  0  0  0  0
   17.6931  133.5615   -4.1165 H   0  0  0  0  0  0  0  0  0  0  0  0
   15.3042  130.8287   -3.5710 H   0  0  0  0  0  0  0  0  0  0  0  0
   13.0176  134.1538   -3.4447 H   0  0  0  0  0  0  0  0  0  0  0  0
   16.1861  135.4853   -2.6509 H   0  0  0  0  0  0  0  0  0  0  0  0
   14.7108  135.9589   -3.1666 H   0  0  0  0  0  0  0  0  0  0  0  0
  1  2  3  0  0  0  0
  2  3  1  0  0  0  0
  3  4  1  0  0  0  0
  4  5  1  0  0  0  0
  5  6  2  0  0  0  0
  6  7  1  0  0  0  0
  7  8  1  0  0  0  0
  8  9  1  0  0  0  0
  9 10  1  0  0  0  0
 10 11  2  0  0  0  0
 11 12  1  0  0  0  0
 12 13  2  0  0  0  0
 13 14  1  0  0  0  0
 14 15  2  0  0  0  0
 15 16  1  0  0  0  0
 16 17  2  0  0  0  0
 17 18  1  0  0  0  0
 18 19  2  0  0  0  0
 17 20  1  0  0  0  0
 20 21  1  0  0  0  0
 21 22  1  0  0  0  0
 22 23  1  0  0  0  0
 23 24  1  0  0  0  0
 24 25  1  0  0  0  0
 25 26  1  0  0  0  0
 26 27  1  0  0  0  0
 27 28  2  0  0  0  0
 28 29  1  0  0  0  0
 29 30  2  0  0  0  0
 30 31  1  0  0  0  0
 31 32  1  0  0  0  0
 23 33  1  0  0  0  0
 33 34  2  0  0  0  0
  8  3  1  0  0  0  0
 19 10  1  0  0  0  0
 33 20  1  0  0  0  0
 32  6  1  0  0  0  0
 18 13  1  0  0  0  0
 31 27  1  0  0  0  0
  3 35  1  0  0  0  0
  4 36  1  0  0  0  0
  4 37  1  0  0  0  0
  5 38  1  0  0  0  0
  7 39  1  0  0  0  0
  7 40  1  0  0  0  0
  8 41  1  0  0  0  0
 11 42  1  0  0  0  0
 12 43  1  0  0  0  0
 14 44  1  0  0  0  0
 15 45  1  0  0  0  0
 16 46  1  0  0  0  0
 19 47  1  0  0  0  0
 21 48  1  0  0  0  0
 21 49  1  0  0  0  0
 22 50  1  0  0  0  0
 22 51  1  0  0  0  0
 23 52  1  0  0  0  0
 24 53  1  0  0  0  0
 24 54  1  0  0  0  0
 25 55  1  0  0  0  0
 25 56  1  0  0  0  0
 26 57  1  0  0  0  0
 26 58  1  0  0  0  0
 28 59  1  0  0  0  0
 30 60  1  0  0  0  0
 32 61  1  0  0  0  0
 32 62  1  0  0  0  0
M  CHG  1  24   1
M  END
> <BIOSOLVEIT.HYDE_ESTIMATED_AFFINITY_LOWER_BOUNDARY [nM]>
5241631.656058

> <BIOSOLVEIT.HYDE_ESTIMATED_AFFINITY_UPPER_BOUNDARY [nM]>
520787096.008366

> <BIOSOLVEIT.HYDE_LIGAND_EFFICIENCY range: ++, +, 0, -, -->
--

> <BIOSOLVEIT.HYDE_LIGAND_LIPOPHILIC_EFFICIENCY range: ++, +, 0, -, -->
--

> <BIOSOLVEIT.INTER_CLASH range: red, yellow, green>
green

> <BIOSOLVEIT.INTRA_CLASH range: red, yellow, green>
green

> <BIOSOLVEIT.LOGP>
2.56868

> <BIOSOLVEIT.MOLECULAR WEIGHT>
454.551

> <BIOSOLVEIT.MOLECULE_CHECKSUM>
LTcuMzE3MzE7MC4yMTUyMTU=

> <BIOSOLVEIT.TORSION_QUALITY range: red, yellow, green, not rotatable>
not rotatable

> <BIOSOLVEIT.TPSA>
87.76

$$$$
1S63_778_1
foHydescor03192112213D 1   1.00000     0.00000     0
Hydescorer 1.1.0 fol007
 50 53  0  0  0  0            999 V2000
   12.1806  131.2980   -2.1886 N   0  0  0  0  0  0  0  0  0  0  0  0
   13.0822  131.9094   -2.5785 C   0  0  0  0  0  0  0  0  0  0  0  0
   14.2037  132.6688   -3.0653 C   0  0  0  0  0  0  0  0  0  0  0  0
   13.9784  133.8819   -3.7084 C   0  0  0  0  0  0  0  0  0  0  0  0
   15.0525  134.6269   -4.1835 C   0  0  0  0  0  0  0  0  0  0  0  0
   16.3448  134.1431   -4.0070 C   0  0  0  0  0  0  0  0  0  0  0  0
   17.5275  134.9466   -4.5228 C   0  0  0  0  0  0  0  0  0  0  0  0
   17.2663  135.4593   -5.8710 N   0  0  0  0  0  0  0  0  0  0  0  0
   17.4581  134.7667   -7.0306 C   0  0  0  0  0  0  0  0  0  0  0  0
   17.1137  135.5510   -8.0282 N   0  0  0  0  0  0  0  0  0  0  0  0
   16.6986  136.7510   -7.5237 C   0  0  0  0  0  0  0  0  0  0  0  0
   16.7924  136.7015   -6.1635 C   0  0  0  0  0  0  0  0  0  0  0  0
   16.4338  137.8060   -5.1829 C   0  0  0  0  0  0  0  0  0  0  0  0
   17.1620  139.0673   -5.4697 N   0  3  1  0  0  0  0  0  0  0  0  0
   16.8662  139.9921   -4.3563 C   0  0  0  0  0  0  0  0  0  0  0  0
   17.9913  140.9564   -3.9779 C   0  0  0  0  0  0  0  0  0  0  0  0
   19.0807  141.1018   -4.9667 N   0  0  0  0  0  0  0  0  0  0  0  0
   19.7710  142.3177   -5.0782 C   0  0  0  0  0  0  0  0  0  0  0  0
   19.1258  143.4225   -5.6248 C   0  0  0  0  0  0  0  0  0  0  0  0
   19.8146  144.6263   -5.7315 C   0  0  0  0  0  0  0  0  0  0  0  0
   21.1322  144.7342   -5.2999 C   0  0  0  0  0  0  0  0  0  0  0  0
   21.7581  143.6171   -4.7560 C   0  0  0  0  0  0  0  0  0  0  0  0
   23.4439  143.7345   -4.1975 Cl  0  0  0  0  0  0  0  0  0  0  0  0
   21.0882  142.4036   -4.6400 C   0  0  0  0  0  0  0  0  0  0  0  0
   19.4023  140.0080   -5.7809 C   0  0  0  0  0  0  0  0  0  0  0  0
   20.3158  140.0585   -6.5882 O   0  0  0  0  0  0  0  0  0  0  0  0
   18.5867  138.7311   -5.6458 C   0  0  0  0  0  0  0  0  0  0  0  0
   16.5736  132.9305   -3.3651 C   0  0  0  0  0  0  0  0  0  0  0  0
   15.4971  132.1876   -2.8905 C   0  0  0  0  0  0  0  0  0  0  0  0
   13.0443  134.2181   -3.8290 H   0  0  0  0  0  0  0  0  0  0  0  0
   14.8978  135.4997   -4.6463 H   0  0  0  0  0  0  0  0  0  0  0  0
   18.3362  134.3590   -4.5474 H   0  0  0  0  0  0  0  0  0  0  0  0
   17.6935  135.7165   -3.9066 H   0  0  0  0  0  0  0  0  0  0  0  0
   17.7996  133.8300   -7.1082 H   0  0  0  0  0  0  0  0  0  0  0  0
   16.3803  137.5326   -8.0602 H   0  0  0  0  0  0  0  0  0  0  0  0
   16.6650  137.5036   -4.2583 H   0  0  0  0  0  0  0  0  0  0  0  0
   15.4510  137.9812   -5.2402 H   0  0  0  0  0  0  0  0  0  0  0  0
   16.8120  139.4593   -6.3205 H   0  0  0  0  0  0  0  0  0  0  0  0
   16.6488  139.4423   -3.5498 H   0  0  0  0  0  0  0  0  0  0  0  0
   16.0681  140.5370   -4.6134 H   0  0  0  0  0  0  0  0  0  0  0  0
   18.3959  140.6338   -3.1222 H   0  0  0  0  0  0  0  0  0  0  0  0
   17.5853  141.8591   -3.8351 H   0  0  0  0  0  0  0  0  0  0  0  0
   18.1785  143.3520   -5.9372 H   0  0  0  0  0  0  0  0  0  0  0  0
   19.3566  145.4242   -6.1234 H   0  0  0  0  0  0  0  0  0  0  0  0
   21.6226  145.6021   -5.3793 H   0  0  0  0  0  0  0  0  0  0  0  0
   21.5462  141.6057   -4.2479 H   0  0  0  0  0  0  0  0  0  0  0  0
   18.9069  138.2147   -4.8516 H   0  0  0  0  0  0  0  0  0  0  0  0
   18.6979  138.1769   -6.4707 H   0  0  0  0  0  0  0  0  0  0  0  0
   17.5076  132.5942   -3.2452 H   0  0  0  0  0  0  0  0  0  0  0  0
   15.6521  131.3150   -2.4275 H   0  0  0  0  0  0  0  0  0  0  0  0
  1  2  3  0  0  0  0
  2  3  1  0  0  0  0
  3  4  2  0  0  0  0
  4  5  1  0  0  0  0
  5  6  2  0  0  0  0
  6  7  1  0  0  0  0
  7  8  1  0  0  0  0
  8  9  1  0  0  0  0
  9 10  2  0  0  0  0
 10 11  1  0  0  0  0
 11 12  2  0  0  0  0
 12 13  1  0  0  0  0
 13 14  1  0  0  0  0
 14 15  1  0  0  0  0
 15 16  1  0  0  0  0
 16 17  1  0  0  0  0
 17 18  1  0  0  0  0
 18 19  2  0  0  0  0
 19 20  1  0  0  0  0
 20 21  2  0  0  0  0
 21 22  1  0  0  0  0
 22 23  1  0  0  0  0
 22 24  2  0  0  0  0
 17 25  1  0  0  0  0
 25 26  2  0  0  0  0
 25 27  1  0  0  0  0
  6 28  1  0  0  0  0
 28 29  2  0  0  0  0
 29  3  1  0  0  0  0
 12  8  1  0  0  0  0
 27 14  1  0  0  0  0
 24 18  1  0  0  0  0
  4 30  1  0  0  0  0
  5 31  1  0  0  0  0
  7 32  1  0  0  0  0
  7 33  1  0  0  0  0
  9 34  1  0  0  0  0
 11 35  1  0  0  0  0
 13 36  1  0  0  0  0
 13 37  1  0  0  0  0
 14 38  1  0  0  0  0
 15 39  1  0  0  0  0
 15 40  1  0  0  0  0
 16 41  1  0  0  0  0
 16 42  1  0  0  0  0
 19 43  1  0  0  0  0
 20 44  1  0  0  0  0
 21 45  1  0  0  0  0
 24 46  1  0  0  0  0
 27 47  1  0  0  0  0
 27 48  1  0  0  0  0
 28 49  1  0  0  0  0
 29 50  1  0  0  0  0
M  CHG  1  14   1
M  END
> <BIOSOLVEIT.HYDE_ESTIMATED_AFFINITY_LOWER_BOUNDARY [nM]>
644540011.474515

> <BIOSOLVEIT.HYDE_ESTIMATED_AFFINITY_UPPER_BOUNDARY [nM]>
64038860962.133896

> <BIOSOLVEIT.HYDE_LIGAND_EFFICIENCY range: ++, +, 0, -, -->
--

> <BIOSOLVEIT.HYDE_LIGAND_LIPOPHILIC_EFFICIENCY range: ++, +, 0, -, -->
--

> <BIOSOLVEIT.INTER_CLASH range: red, yellow, green>
green

> <BIOSOLVEIT.INTRA_CLASH range: red, yellow, green>
green

> <BIOSOLVEIT.LOGP>
1.88818

> <BIOSOLVEIT.MOLECULAR WEIGHT>
406.895

> <BIOSOLVEIT.MOLECULE_CHECKSUM>
NC42MTEyOzA=

> <BIOSOLVEIT.TORSION_QUALITY range: red, yellow, green, not rotatable>
green

> <BIOSOLVEIT.TPSA>
66.36

$$$$
1S63_778_2
foHydescor03192112213D 1   1.00000     0.00000     0
Hydescorer 1.1.0 fol007
 50 53  0  0  0  0            999 V2000
   12.1824  131.2987   -2.1875 N   0  0  0  0  0  0  0  0  0  0  0  0
   13.0784  131.9148   -2.5829 C   0  0  0  0  0  0  0  0  0  0  0  0
   14.1930  132.6822   -3.0728 C   0  0  0  0  0  0  0  0  0  0  0  0
   15.4863  132.2080   -2.8771 C   0  0  0  0  0  0  0  0  0  0  0  0
   16.5730  132.9386   -3.3456 C   0  0  0  0  0  0  0  0  0  0  0  0
   16.3476  134.1414   -4.0071 C   0  0  0  0  0  0  0  0  0  0  0  0
   17.5264  134.9506   -4.5229 C   0  0  0  0  0  0  0  0  0  0  0  0
   17.2629  135.4614   -5.8715 N   0  0  0  0  0  0  0  0  0  0  0  0
   17.4540  134.7675   -7.0305 C   0  0  0  0  0  0  0  0  0  0  0  0
   17.1074  135.5503   -8.0286 N   0  0  0  0  0  0  0  0  0  0  0  0
   16.6918  136.7505   -7.5250 C   0  0  0  0  0  0  0  0  0  0  0  0
   16.7872  136.7027   -6.1649 C   0  0  0  0  0  0  0  0  0  0  0  0
   16.4289  137.8081   -5.1853 C   0  0  0  0  0  0  0  0  0  0  0  0
   17.1591  139.0683   -5.4715 N   0  3  1  0  0  0  0  0  0  0  0  0
   16.8655  139.9929   -4.3575 C   0  0  0  0  0  0  0  0  0  0  0  0
   17.9924  140.9551   -3.9789 C   0  0  0  0  0  0  0  0  0  0  0  0
   19.0818  141.0991   -4.9681 N   0  0  0  0  0  0  0  0  0  0  0  0
   19.7741  142.3139   -5.0791 C   0  0  0  0  0  0  0  0  0  0  0  0
   19.1311  143.4196   -5.6264 C   0  0  0  0  0  0  0  0  0  0  0  0
   19.8220  144.6223   -5.7326 C   0  0  0  0  0  0  0  0  0  0  0  0
   21.1394  144.7280   -5.2999 C   0  0  0  0  0  0  0  0  0  0  0  0
   21.7631  143.6100   -4.7553 C   0  0  0  0  0  0  0  0  0  0  0  0
   23.4484  143.7248   -4.1951 Cl  0  0  0  0  0  0  0  0  0  0  0  0
   21.0910  142.3977   -4.6397 C   0  0  0  0  0  0  0  0  0  0  0  0
   19.4010  140.0052   -5.7831 C   0  0  0  0  0  0  0  0  0  0  0  0
   20.3143  140.0547   -6.5906 O   0  0  0  0  0  0  0  0  0  0  0  0
   18.5832  138.7297   -5.6484 C   0  0  0  0  0  0  0  0  0  0  0  0
   15.0560  134.6188   -4.2040 C   0  0  0  0  0  0  0  0  0  0  0  0
   13.9708  133.8855   -3.7346 C   0  0  0  0  0  0  0  0  0  0  0  0
   15.6344  131.3419   -2.3996 H   0  0  0  0  0  0  0  0  0  0  0  0
   17.5051  132.6033   -3.2087 H   0  0  0  0  0  0  0  0  0  0  0  0
   18.3381  134.3671   -4.5470 H   0  0  0  0  0  0  0  0  0  0  0  0
   17.6883  135.7217   -3.9070 H   0  0  0  0  0  0  0  0  0  0  0  0
   17.7964  133.8311   -7.1072 H   0  0  0  0  0  0  0  0  0  0  0  0
   16.3720  137.5310   -8.0620 H   0  0  0  0  0  0  0  0  0  0  0  0
   16.6584  137.5058   -4.2601 H   0  0  0  0  0  0  0  0  0  0  0  0
   15.4463  137.9846   -5.2441 H   0  0  0  0  0  0  0  0  0  0  0  0
   16.8097  139.4614   -6.3220 H   0  0  0  0  0  0  0  0  0  0  0  0
   16.6474  139.4430   -3.5513 H   0  0  0  0  0  0  0  0  0  0  0  0
   16.0682  140.5394   -4.6140 H   0  0  0  0  0  0  0  0  0  0  0  0
   18.3968  140.6312   -3.1236 H   0  0  0  0  0  0  0  0  0  0  0  0
   17.5881  141.8584   -3.8355 H   0  0  0  0  0  0  0  0  0  0  0  0
   18.1839  143.3506   -5.9396 H   0  0  0  0  0  0  0  0  0  0  0  0
   19.3657  145.4208   -6.1251 H   0  0  0  0  0  0  0  0  0  0  0  0
   21.6312  145.5951   -5.3790 H   0  0  0  0  0  0  0  0  0  0  0  0
   21.5473  141.5992   -4.2469 H   0  0  0  0  0  0  0  0  0  0  0  0
   18.9029  138.2122   -4.8546 H   0  0  0  0  0  0  0  0  0  0  0  0
   18.6931  138.1757   -6.4737 H   0  0  0  0  0  0  0  0  0  0  0  0
   14.9082  135.4853   -4.6808 H   0  0  0  0  0  0  0  0  0  0  0  0
   13.0387  134.2207   -3.8719 H   0  0  0  0  0  0  0  0  0  0  0  0
  1  2  3  0  0  0  0
  2  3  1  0  0  0  0
  3  4  2  0  0  0  0
  4  5  1  0  0  0  0
  5  6  2  0  0  0  0
  6  7  1  0  0  0  0
  7  8  1  0  0  0  0
  8  9  1  0  0  0  0
  9 10  2  0  0  0  0
 10 11  1  0  0  0  0
 11 12  2  0  0  0  0
 12 13  1  0  0  0  0
 13 14  1  0  0  0  0
 14 15  1  0  0  0  0
 15 16  1  0  0  0  0
 16 17  1  0  0  0  0
 17 18  1  0  0  0  0
 18 19  2  0  0  0  0
 19 20  1  0  0  0  0
 20 21  2  0  0  0  0
 21 22  1  0  0  0  0
 22 23  1  0  0  0  0
 22 24  2  0  0  0  0
 17 25  1  0  0  0  0
 25 26  2  0  0  0  0
 25 27  1  0  0  0  0
  6 28  1  0  0  0  0
 28 29  2  0  0  0  0
 29  3  1  0  0  0  0
 12  8  1  0  0  0  0
 27 14  1  0  0  0  0
 24 18  1  0  0  0  0
  4 30  1  0  0  0  0
  5 31  1  0  0  0  0
  7 32  1  0  0  0  0
  7 33  1  0  0  0  0
  9 34  1  0  0  0  0
 11 35  1  0  0  0  0
 13 36  1  0  0  0  0
 13 37  1  0  0  0  0
 14 38  1  0  0  0  0
 15 39  1  0  0  0  0
 15 40  1  0  0  0  0
 16 41  1  0  0  0  0
 16 42  1  0  0  0  0
 19 43  1  0  0  0  0
 20 44  1  0  0  0  0
 21 45  1  0  0  0  0
 24 46  1  0  0  0  0
 27 47  1  0  0  0  0
 27 48  1  0  0  0  0
 28 49  1  0  0  0  0
 29 50  1  0  0  0  0
M  CHG  1  14   1
M  END
> <BIOSOLVEIT.HYDE_ESTIMATED_AFFINITY_LOWER_BOUNDARY [nM]>
708576802.577797

> <BIOSOLVEIT.HYDE_ESTIMATED_AFFINITY_UPPER_BOUNDARY [nM]>
70401294773.717972

> <BIOSOLVEIT.HYDE_LIGAND_EFFICIENCY range: ++, +, 0, -, -->
--

> <BIOSOLVEIT.HYDE_LIGAND_LIPOPHILIC_EFFICIENCY range: ++, +, 0, -, -->
--

> <BIOSOLVEIT.INTER_CLASH range: red, yellow, green>
green

> <BIOSOLVEIT.INTRA_CLASH range: red, yellow, green>
green

> <BIOSOLVEIT.LOGP>
1.88818

> <BIOSOLVEIT.MOLECULAR WEIGHT>
406.895

> <BIOSOLVEIT.MOLECULE_CHECKSUM>
NC44NDYwMTsw

> <BIOSOLVEIT.TORSION_QUALITY range: red, yellow, green, not rotatable>
green

> <BIOSOLVEIT.TPSA>
66.36

$$$$
1S63_778_3
foHydescor03192112213D 1   1.00000     0.00000     0
Hydescorer 1.1.0 fol007
 50 53  0  0  0  0            999 V2000
   12.2078  131.3480   -2.1535 N   0  0  0  0  0  0  0  0  0  0  0  0
   13.0474  131.9772   -2.6410 C   0  0  0  0  0  0  0  0  0  0  0  0
   14.0921  132.7611   -3.2458 C   0  0  0  0  0  0  0  0  0  0  0  0
   15.4198  132.3926   -3.0534 C   0  0  0  0  0  0  0  0  0  0  0  0
   16.4397  133.1403   -3.6323 C   0  0  0  0  0  0  0  0  0  0  0  0
   16.1134  134.2535   -4.3999 C   0  0  0  0  0  0  0  0  0  0  0  0
   17.2183  135.0803   -5.0369 C   0  0  0  0  0  0  0  0  0  0  0  0
   16.6644  136.0702   -5.9656 N   0  0  0  0  0  0  0  0  0  0  0  0
   16.2801  135.8197   -7.2506 C   0  0  0  0  0  0  0  0  0  0  0  0
   15.8355  136.9460   -7.7631 N   0  0  0  0  0  0  0  0  0  0  0  0
   15.9287  137.9286   -6.8184 C   0  0  0  0  0  0  0  0  0  0  0  0
   16.4512  137.3843   -5.6816 C   0  0  0  0  0  0  0  0  0  0  0  0
   16.7290  138.1012   -4.3706 C   0  0  0  0  0  0  0  0  0  0  0  0
   17.0486  139.5364   -4.5740 N   0  3  1  0  0  0  0  0  0  0  0  0
   17.1375  140.2802   -3.3084 C   0  0  0  0  0  0  0  0  0  0  0  0
   18.1951  139.6676   -2.4071 C   0  0  0  0  0  0  0  0  0  0  0  0
   19.4740  139.4252   -3.0986 N   0  0  0  0  0  0  0  0  0  0  0  0
   20.6200  139.1959   -2.3245 C   0  0  0  0  0  0  0  0  0  0  0  0
   21.3384  140.2793   -1.8291 C   0  0  0  0  0  0  0  0  0  0  0  0
   22.4739  140.0458   -1.0602 C   0  0  0  0  0  0  0  0  0  0  0  0
   22.8937  138.7490   -0.7847 C   0  0  0  0  0  0  0  0  0  0  0  0
   22.1602  137.6802   -1.2896 C   0  0  0  0  0  0  0  0  0  0  0  0
   22.6807  136.0129   -0.9480 Cl  0  0  0  0  0  0  0  0  0  0  0  0
   21.0219  137.8907   -2.0607 C   0  0  0  0  0  0  0  0  0  0  0  0
   19.5481  139.4179   -4.4963 C   0  0  0  0  0  0  0  0  0  0  0  0
   20.5844  139.1704   -5.0912 O   0  0  0  0  0  0  0  0  0  0  0  0
   18.3068  139.7390   -5.3164 C   0  0  0  0  0  0  0  0  0  0  0  0
   14.7870  134.6251   -4.5938 C   0  0  0  0  0  0  0  0  0  0  0  0
   13.7688  133.8751   -4.0139 C   0  0  0  0  0  0  0  0  0  0  0  0
   15.6408  131.5902   -2.4989 H   0  0  0  0  0  0  0  0  0  0  0  0
   17.3960  132.8807   -3.4984 H   0  0  0  0  0  0  0  0  0  0  0  0
   17.8351  134.4723   -5.5367 H   0  0  0  0  0  0  0  0  0  0  0  0
   17.7273  135.5547   -4.3186 H   0  0  0  0  0  0  0  0  0  0  0  0
   16.3280  134.9374   -7.7188 H   0  0  0  0  0  0  0  0  0  0  0  0
   15.6596  138.8840   -6.9395 H   0  0  0  0  0  0  0  0  0  0  0  0
   17.5046  137.6592   -3.9198 H   0  0  0  0  0  0  0  0  0  0  0  0
   15.9199  138.0308   -3.7871 H   0  0  0  0  0  0  0  0  0  0  0  0
   16.3088  139.9397   -5.1128 H   0  0  0  0  0  0  0  0  0  0  0  0
   16.2518  140.2494   -2.8452 H   0  0  0  0  0  0  0  0  0  0  0  0
   17.3798  141.2310   -3.5014 H   0  0  0  0  0  0  0  0  0  0  0  0
   17.8508  138.7953   -2.0597 H   0  0  0  0  0  0  0  0  0  0  0  0
   18.3600  140.2895   -1.6417 H   0  0  0  0  0  0  0  0  0  0  0  0
   21.0423  141.2145   -2.0235 H   0  0  0  0  0  0  0  0  0  0  0  0
   22.9948  140.8203   -0.7010 H   0  0  0  0  0  0  0  0  0  0  0  0
   23.7110  138.5871   -0.2316 H   0  0  0  0  0  0  0  0  0  0  0  0
   20.5010  137.1162   -2.4196 H   0  0  0  0  0  0  0  0  0  0  0  0
   18.2978  139.1483   -6.1232 H   0  0  0  0  0  0  0  0  0  0  0  0
   18.3551  140.6955   -5.6040 H   0  0  0  0  0  0  0  0  0  0  0  0
   14.5662  135.4280   -5.1476 H   0  0  0  0  0  0  0  0  0  0  0  0
   12.8123  134.1345   -4.1481 H   0  0  0  0  0  0  0  0  0  0  0  0
  1  2  3  0  0  0  0
  2  3  1  0  0  0  0
  3  4  2  0  0  0  0
  4  5  1  0  0  0  0
  5  6  2  0  0  0  0
  6  7  1  0  0  0  0
  7  8  1  0  0  0  0
  8  9  1  0  0  0  0
  9 10  2  0  0  0  0
 10 11  1  0  0  0  0
 11 12  2  0  0  0  0
 12 13  1  0  0  0  0
 13 14  1  0  0  0  0
 14 15  1  0  0  0  0
 15 16  1  0  0  0  0
 16 17  1  0  0  0  0
 17 18  1  0  0  0  0
 18 19  2  0  0  0  0
 19 20  1  0  0  0  0
 20 21  2  0  0  0  0
 21 22  1  0  0  0  0
 22 23  1  0  0  0  0
 22 24  2  0  0  0  0
 17 25  1  0  0  0  0
 25 26  2  0  0  0  0
 25 27  1  0  0  0  0
  6 28  1  0  0  0  0
 28 29  2  0  0  0  0
 29  3  1  0  0  0  0
 12  8  1  0  0  0  0
 27 14  1  0  0  0  0
 24 18  1  0  0  0  0
  4 30  1  0  0  0  0
  5 31  1  0  0  0  0
  7 32  1  0  0  0  0
  7 33  1  0  0  0  0
  9 34  1  0  0  0  0
 11 35  1  0  0  0  0
 13 36  1  0  0  0  0
 13 37  1  0  0  0  0
 14 38  1  0  0  0  0
 15 39  1  0  0  0  0
 15 40  1  0  0  0  0
 16 41  1  0  0  0  0
 16 42  1  0  0  0  0
 19 43  1  0  0  0  0
 20 44  1  0  0  0  0
 21 45  1  0  0  0  0
 24 46  1  0  0  0  0
 27 47  1  0  0  0  0
 27 48  1  0  0  0  0
 28 49  1  0  0  0  0
 29 50  1  0  0  0  0
M  CHG  1  14   1
M  END
> <BIOSOLVEIT.HYDE_ESTIMATED_AFFINITY_LOWER_BOUNDARY [nM]>
5833757.303594

> <BIOSOLVEIT.HYDE_ESTIMATED_AFFINITY_UPPER_BOUNDARY [nM]>
579618280.014946

> <BIOSOLVEIT.HYDE_LIGAND_EFFICIENCY range: ++, +, 0, -, -->
--

> <BIOSOLVEIT.HYDE_LIGAND_LIPOPHILIC_EFFICIENCY range: ++, +, 0, -, -->
--

> <BIOSOLVEIT.INTER_CLASH range: red, yellow, green>
green

> <BIOSOLVEIT.INTRA_CLASH range: red, yellow, green>
green

> <BIOSOLVEIT.LOGP>
1.88818

> <BIOSOLVEIT.MOLECULAR WEIGHT>
406.895

> <BIOSOLVEIT.MOLECULE_CHECKSUM>
LTcuMDUxOTk7MC4yNDMxNzI=

> <BIOSOLVEIT.TORSION_QUALITY range: red, yellow, green, not rotatable>
green

> <BIOSOLVEIT.TPSA>
66.36

$$$$
3E37_ED5_1
foHydescor03192112213D 1   1.00000     0.00000     0
Hydescorer 1.1.0 fol007
 85 88  0  0  0  0            999 V2000
   17.0032  137.7336   -4.6043 C   0  0  0  0  0  0  0  0  0  0  0  0
   17.8123  139.0043   -4.8070 C   0  0  0  0  0  0  0  0  0  0  0  0
   17.1845  140.2271   -4.5915 C   0  0  0  0  0  0  0  0  0  0  0  0
   17.9032  141.4041   -4.7704 C   0  0  0  0  0  0  0  0  0  0  0  0
   19.2371  141.3516   -5.1613 C   0  0  0  0  0  0  0  0  0  0  0  0
   19.8663  140.1299   -5.3774 C   0  0  0  0  0  0  0  0  0  0  0  0
   19.1470  138.9523   -5.1986 C   0  0  0  0  0  0  0  0  0  0  0  0
   19.9688  137.3983   -5.4797 S   0  0  0  0  0  0  0  0  0  0  0  0
   21.1907  137.6183   -6.3281 O   0  0  0  0  0  0  0  0  0  0  0  0
   19.0353  136.5305   -6.2762 O   0  0  0  0  0  0  0  0  0  0  0  0
   20.3788  136.5193   -4.0127 N   0  0  0  0  0  0  0  0  0  0  0  0
   19.2669  135.7385   -3.4330 C   0  0  0  0  0  0  0  0  0  0  0  0
   19.0021  134.3936   -4.1355 C   0  0  0  0  0  0  0  0  0  0  0  0
   18.6901  133.3586   -3.1440 N   0  0  0  0  0  0  0  0  0  0  0  0
   19.7142  132.8634   -2.2165 C   0  0  0  0  0  0  0  0  0  0  0  0
   21.0901  133.3578   -2.6352 C   0  0  0  0  0  0  0  0  0  0  0  0
   21.7027  133.0999   -3.8262 C   0  0  0  0  0  0  0  0  0  0  0  0
   22.9124  133.7280   -3.7949 N   0  0  0  0  0  0  0  0  0  0  0  0
   23.0373  134.3428   -2.6382 C   0  0  0  0  0  0  0  0  0  0  0  0
   21.9179  134.1394   -1.8926 N   0  0  0  0  0  0  0  0  0  0  0  0
   21.6554  134.6557   -0.5410 C   0  0  0  0  0  0  0  0  0  0  0  0
   17.3261  132.9564   -2.9589 C   0  0  0  0  0  0  0  0  0  0  0  0
   16.3057  133.8695   -3.2048 C   0  0  0  0  0  0  0  0  0  0  0  0
   14.9784  133.4928   -3.0288 C   0  0  0  0  0  0  0  0  0  0  0  0
   14.6904  132.1994   -2.6074 C   0  0  0  0  0  0  0  0  0  0  0  0
   13.2441  131.7745   -2.4125 C   0  0  0  0  0  0  0  0  0  0  0  0
   12.1430  131.4509   -2.2649 N   0  0  0  0  0  0  0  0  0  0  0  0
   15.7073  131.2826   -2.3606 C   0  0  0  0  0  0  0  0  0  0  0  0
   17.0336  131.6633   -2.5373 C   0  0  0  0  0  0  0  0  0  0  0  0
   21.1562  137.3085   -3.0382 C   0  0  0  0  0  0  0  0  0  0  0  0
   20.2386  137.8849   -1.9398 C   0  0  0  0  0  0  0  0  0  0  0  0
   20.9267  137.7213   -0.5994 C   0  0  0  0  0  0  0  0  0  0  0  0
   20.4403  138.7819    0.3727 C   0  0  0  0  0  0  0  0  0  0  0  0
   19.0371  139.0598    0.0464 N   0  0  0  0  0  0  0  0  0  0  0  0
   17.9733  138.6675    0.8719 C   0  0  0  0  0  0  0  0  0  0  0  0
   18.1840  138.3991    2.0859 O   0  0  0  0  0  0  0  0  0  0  0  0
   16.6762  138.5781    0.3399 O   0  0  0  0  0  0  0  0  0  0  0  0
   15.7565  137.4894    0.5107 C   0  0  0  0  0  0  0  0  0  0  0  0
   15.3880  137.3182    1.9970 C   0  0  0  0  0  0  0  0  0  0  0  0
   14.4920  137.7077   -0.3416 C   0  0  0  0  0  0  0  0  0  0  0  0
   16.4671  136.2163    0.0264 C   0  0  0  0  0  0  0  0  0  0  0  0
   18.8696  139.8152   -1.2001 C   0  0  0  0  0  0  0  0  0  0  0  0
   19.9490  139.3621   -2.1698 C   0  0  0  0  0  0  0  0  0  0  0  0
   17.5789  136.9381   -4.7933 H   0  0  0  0  0  0  0  0  0  0  0  0
   16.6779  137.6927   -3.6595 H   0  0  0  0  0  0  0  0  0  0  0  0
   16.2205  137.7340   -5.2266 H   0  0  0  0  0  0  0  0  0  0  0  0
   16.2253  140.2592   -4.3105 H   0  0  0  0  0  0  0  0  0  0  0  0
   17.4612  142.2881   -4.6180 H   0  0  0  0  0  0  0  0  0  0  0  0
   19.7492  142.2011   -5.2884 H   0  0  0  0  0  0  0  0  0  0  0  0
   20.8255  140.0983   -5.6582 H   0  0  0  0  0  0  0  0  0  0  0  0
   18.4346  136.2901   -3.4888 H   0  0  0  0  0  0  0  0  0  0  0  0
   19.4808  135.5539   -2.4737 H   0  0  0  0  0  0  0  0  0  0  0  0
   19.8158  134.1238   -4.6503 H   0  0  0  0  0  0  0  0  0  0  0  0
   18.2295  134.4945   -4.7623 H   0  0  0  0  0  0  0  0  0  0  0  0
   19.7076  131.8635   -2.2212 H   0  0  0  0  0  0  0  0  0  0  0  0
   19.5115  133.1937   -1.2946 H   0  0  0  0  0  0  0  0  0  0  0  0
   21.3347  132.5540   -4.5790 H   0  0  0  0  0  0  0  0  0  0  0  0
   23.8324  134.8772   -2.3515 H   0  0  0  0  0  0  0  0  0  0  0  0
   20.7533  134.3496   -0.2366 H   0  0  0  0  0  0  0  0  0  0  0  0
   22.3533  134.3133    0.0880 H   0  0  0  0  0  0  0  0  0  0  0  0
   21.6810  135.6553   -0.5552 H   0  0  0  0  0  0  0  0  0  0  0  0
   16.5265  134.7965   -3.5081 H   0  0  0  0  0  0  0  0  0  0  0  0
   14.2401  134.1444   -3.2033 H   0  0  0  0  0  0  0  0  0  0  0  0
   15.4861  130.3554   -2.0581 H   0  0  0  0  0  0  0  0  0  0  0  0
   17.7719  131.0119   -2.3623 H   0  0  0  0  0  0  0  0  0  0  0  0
   21.6099  138.0617   -3.5143 H   0  0  0  0  0  0  0  0  0  0  0  0
   21.8442  136.7195   -2.6143 H   0  0  0  0  0  0  0  0  0  0  0  0
   19.3767  137.3778   -1.9313 H   0  0  0  0  0  0  0  0  0  0  0  0
   21.9148  137.8138   -0.7220 H   0  0  0  0  0  0  0  0  0  0  0  0
   20.7200  136.8153   -0.2304 H   0  0  0  0  0  0  0  0  0  0  0  0
   20.9863  139.6138    0.2735 H   0  0  0  0  0  0  0  0  0  0  0  0
   20.5134  138.4453    1.3115 H   0  0  0  0  0  0  0  0  0  0  0  0
   14.7477  136.5565    2.0961 H   0  0  0  0  0  0  0  0  0  0  0  0
   16.2153  137.1292    2.5260 H   0  0  0  0  0  0  0  0  0  0  0  0
   14.9618  138.1579    2.3336 H   0  0  0  0  0  0  0  0  0  0  0  0
   13.8644  136.9404   -0.2095 H   0  0  0  0  0  0  0  0  0  0  0  0
   14.0438  138.5568   -0.0618 H   0  0  0  0  0  0  0  0  0  0  0  0
   14.7468  137.7677   -1.3067 H   0  0  0  0  0  0  0  0  0  0  0  0
   15.8547  135.4326    0.1304 H   0  0  0  0  0  0  0  0  0  0  0  0
   16.7159  136.3193   -0.9366 H   0  0  0  0  0  0  0  0  0  0  0  0
   17.2932  136.0683    0.5702 H   0  0  0  0  0  0  0  0  0  0  0  0
   18.9644  140.7941   -1.0195 H   0  0  0  0  0  0  0  0  0  0  0  0
   17.9661  139.6338   -1.5885 H   0  0  0  0  0  0  0  0  0  0  0  0
   20.7816  139.8942   -2.0163 H   0  0  0  0  0  0  0  0  0  0  0  0
   19.6341  139.4991   -3.1090 H   0  0  0  0  0  0  0  0  0  0  0  0
  1  2  1  0  0  0  0
  2  3  2  0  0  0  0
  3  4  1  0  0  0  0
  4  5  2  0  0  0  0
  5  6  1  0  0  0  0
  6  7  2  0  0  0  0
  7  8  1  0  0  0  0
  8  9  2  0  0  0  0
  8 10  2  0  0  0  0
  8 11  1  0  0  0  0
 11 12  1  0  0  0  0
 12 13  1  0  0  0  0
 13 14  1  0  0  0  0
 14 15  1  0  0  0  0
 15 16  1  0  0  0  0
 16 17  2  0  0  0  0
 17 18  1  0  0  0  0
 18 19  2  0  0  0  0
 19 20  1  0  0  0  0
 20 21  1  0  0  0  0
 14 22  1  0  0  0  0
 22 23  2  0  0  0  0
 23 24  1  0  0  0  0
 24 25  2  0  0  0  0
 25 26  1  0  0  0  0
 26 27  3  0  0  0  0
 25 28  1  0  0  0  0
 28 29  2  0  0  0  0
 11 30  1  0  0  0  0
 30 31  1  0  0  0  0
 31 32  1  0  0  0  0
 32 33  1  0  0  0  0
 33 34  1  0  0  0  0
 34 35  1  0  0  0  0
 35 36  2  0  0  0  0
 35 37  1  0  0  0  0
 37 38  1  0  0  0  0
 38 39  1  0  0  0  0
 38 40  1  0  0  0  0
 38 41  1  0  0  0  0
 34 42  1  0  0  0  0
 42 43  1  0  0  0  0
  7  2  1  0  0  0  0
 20 16  1  0  0  0  0
 29 22  1  0  0  0  0
 43 31  1  0  0  0  0
  1 44  1  0  0  0  0
  1 45  1  0  0  0  0
  1 46  1  0  0  0  0
  3 47  1  0  0  0  0
  4 48  1  0  0  0  0
  5 49  1  0  0  0  0
  6 50  1  0  0  0  0
 12 51  1  0  0  0  0
 12 52  1  0  0  0  0
 13 53  1  0  0  0  0
 13 54  1  0  0  0  0
 15 55  1  0  0  0  0
 15 56  1  0  0  0  0
 17 57  1  0  0  0  0
 19 58  1  0  0  0  0
 21 59  1  0  0  0  0
 21 60  1  0  0  0  0
 21 61  1  0  0  0  0
 23 62  1  0  0  0  0
 24 63  1  0  0  0  0
 28 64  1  0  0  0  0
 29 65  1  0  0  0  0
 30 66  1  0  0  0  0
 30 67  1  0  0  0  0
 31 68  1  0  0  0  0
 32 69  1  0  0  0  0
 32 70  1  0  0  0  0
 33 71  1  0  0  0  0
 33 72  1  0  0  0  0
 39 73  1  0  0  0  0
 39 74  1  0  0  0  0
 39 75  1  0  0  0  0
 40 76  1  0  0  0  0
 40 77  1  0  0  0  0
 40 78  1  0  0  0  0
 41 79  1  0  0  0  0
 41 80  1  0  0  0  0
 41 81  1  0  0  0  0
 42 82  1  0  0  0  0
 42 83  1  0  0  0  0
 43 84  1  0  0  0  0
 43 85  1  0  0  0  0
M  END
> <BIOSOLVEIT.HYDE_ESTIMATED_AFFINITY_LOWER_BOUNDARY [nM]>
8013.205534

> <BIOSOLVEIT.HYDE_ESTIMATED_AFFINITY_UPPER_BOUNDARY [nM]>
796159.347672

> <BIOSOLVEIT.HYDE_LIGAND_EFFICIENCY range: ++, +, 0, -, -->
--

> <BIOSOLVEIT.HYDE_LIGAND_LIPOPHILIC_EFFICIENCY range: ++, +, 0, -, -->
--

> <BIOSOLVEIT.INTER_CLASH range: red, yellow, green>
yellow

> <BIOSOLVEIT.INTRA_CLASH range: red, yellow, green>
yellow

> <BIOSOLVEIT.LOGP>
5.5954

> <BIOSOLVEIT.MOLECULAR WEIGHT>
606.787

> <BIOSOLVEIT.MOLECULE_CHECKSUM>
LTIzLjM4OTE7MC41NDM5MzM=

> <BIOSOLVEIT.TORSION_QUALITY range: red, yellow, green, not rotatable>
red

> <BIOSOLVEIT.TPSA>
111.77

$$$$
3E37_ED5_2
foHydescor03192112213D 1   1.00000     0.00000     0
Hydescorer 1.1.0 fol007
 86 89  0  0  0  0            999 V2000
   16.8648  138.6336   -4.0408 C   0  0  0  0  0  0  0  0  0  0  0  0
   17.9004  139.6437   -4.5073 C   0  0  0  0  0  0  0  0  0  0  0  0
   17.5782  140.9956   -4.4435 C   0  0  0  0  0  0  0  0  0  0  0  0
   18.5086  141.9396   -4.8646 C   0  0  0  0  0  0  0  0  0  0  0  0
   19.7480  141.5283   -5.3439 C   0  0  0  0  0  0  0  0  0  0  0  0
   20.0717  140.1770   -5.4087 C   0  0  0  0  0  0  0  0  0  0  0  0
   19.1405  139.2327   -4.9876 C   0  0  0  0  0  0  0  0  0  0  0  0
   19.5724  137.5079   -5.0776 S   0  0  0  0  0  0  0  0  0  0  0  0
   20.8074  137.3390   -5.9187 O   0  0  0  0  0  0  0  0  0  0  0  0
   18.4570  136.7991   -5.7933 O   0  0  0  0  0  0  0  0  0  0  0  0
   19.7717  136.7279   -3.5140 N   0  0  0  0  0  0  0  0  0  0  0  0
   18.8927  135.5618   -3.2925 C   0  0  0  0  0  0  0  0  0  0  0  0
   19.1877  134.3613   -4.2115 C   0  0  0  0  0  0  0  0  0  0  0  0
   18.9369  133.1049   -3.4970 N   0  0  0  0  0  0  0  0  0  0  0  0
   20.0291  132.3705   -2.8474 C   0  0  0  0  0  0  0  0  0  0  0  0
   21.3207  133.1700   -2.9210 C   0  0  0  0  0  0  0  0  0  0  0  0
   22.0936  133.3377   -4.0324 C   0  0  0  0  0  0  0  0  0  0  0  0
   23.1500  134.1186   -3.6674 N   0  3  0  0  0  0  0  0  0  0  0  0
   23.0318  134.4163   -2.3911 C   0  0  0  0  0  0  0  0  0  0  0  0
   21.9001  133.8476   -1.8951 N   0  0  0  0  0  0  0  0  0  0  0  0
   21.4022  133.9386   -0.5144 C   0  0  0  0  0  0  0  0  0  0  0  0
   17.5837  132.6838   -3.2773 C   0  0  0  0  0  0  0  0  0  0  0  0
   17.3219  131.6878   -2.3420 C   0  0  0  0  0  0  0  0  0  0  0  0
   16.0143  131.2695   -2.1193 C   0  0  0  0  0  0  0  0  0  0  0  0
   14.9816  131.8588   -2.8399 C   0  0  0  0  0  0  0  0  0  0  0  0
   13.5478  131.4120   -2.6052 C   0  0  0  0  0  0  0  0  0  0  0  0
   12.4563  131.0723   -2.4258 N   0  0  0  0  0  0  0  0  0  0  0  0
   15.2381  132.8555   -3.7759 C   0  0  0  0  0  0  0  0  0  0  0  0
   16.5474  133.2708   -3.9962 C   0  0  0  0  0  0  0  0  0  0  0  0
   19.8509  137.6688   -2.3802 C   0  0  0  0  0  0  0  0  0  0  0  0
   20.5833  137.0277   -1.1831 C   0  0  0  0  0  0  0  0  0  0  0  0
   22.0604  137.3939   -1.2720 C   0  0  0  0  0  0  0  0  0  0  0  0
   22.6083  137.9861    0.0202 C   0  0  0  0  0  0  0  0  0  0  0  0
   22.0796  137.3131    1.2187 N   0  0  0  0  0  0  0  0  0  0  0  0
   22.8324  137.1904    2.3940 C   0  0  0  0  0  0  0  0  0  0  0  0
   24.0076  136.7359    2.3446 O   0  0  0  0  0  0  0  0  0  0  0  0
   22.2722  137.5779    3.6227 O   0  0  0  0  0  0  0  0  0  0  0  0
   22.0951  136.7475    4.7800 C   0  0  0  0  0  0  0  0  0  0  0  0
   23.4565  136.2605    5.3123 C   0  0  0  0  0  0  0  0  0  0  0  0
   21.3207  137.5026    5.8770 C   0  0  0  0  0  0  0  0  0  0  0  0
   21.2699  135.5284    4.3404 C   0  0  0  0  0  0  0  0  0  0  0  0
   20.7286  136.7366    1.2209 C   0  0  0  0  0  0  0  0  0  0  0  0
   19.9356  137.4388    0.1314 C   0  0  0  0  0  0  0  0  0  0  0  0
   17.2313  137.7089   -4.1433 H   0  0  0  0  0  0  0  0  0  0  0  0
   16.6456  138.8006   -3.0795 H   0  0  0  0  0  0  0  0  0  0  0  0
   16.0361  138.7267   -4.5926 H   0  0  0  0  0  0  0  0  0  0  0  0
   16.6858  141.2858   -4.0981 H   0  0  0  0  0  0  0  0  0  0  0  0
   18.2867  142.9137   -4.8228 H   0  0  0  0  0  0  0  0  0  0  0  0
   20.4133  142.2113   -5.6451 H   0  0  0  0  0  0  0  0  0  0  0  0
   20.9643  139.8872   -5.7541 H   0  0  0  0  0  0  0  0  0  0  0  0
   17.9472  135.8488   -3.4461 H   0  0  0  0  0  0  0  0  0  0  0  0
   19.0007  135.2640   -2.3440 H   0  0  0  0  0  0  0  0  0  0  0  0
   20.1449  134.3927   -4.4992 H   0  0  0  0  0  0  0  0  0  0  0  0
   18.5960  134.4078   -5.0163 H   0  0  0  0  0  0  0  0  0  0  0  0
   20.1575  131.4932   -3.3099 H   0  0  0  0  0  0  0  0  0  0  0  0
   19.7945  132.2106   -1.8885 H   0  0  0  0  0  0  0  0  0  0  0  0
   21.9188  132.9598   -4.9416 H   0  0  0  0  0  0  0  0  0  0  0  0
   23.6748  134.9745   -1.8668 H   0  0  0  0  0  0  0  0  0  0  0  0
   20.5488  133.4238   -0.4332 H   0  0  0  0  0  0  0  0  0  0  0  0
   22.0826  133.5569    0.1112 H   0  0  0  0  0  0  0  0  0  0  0  0
   21.2367  134.8970   -0.2822 H   0  0  0  0  0  0  0  0  0  0  0  0
   18.0739  131.2726   -1.8298 H   0  0  0  0  0  0  0  0  0  0  0  0
   15.8193  130.5536   -1.4489 H   0  0  0  0  0  0  0  0  0  0  0  0
   14.4859  133.2710   -4.2874 H   0  0  0  0  0  0  0  0  0  0  0  0
   16.7424  133.9865   -4.6668 H   0  0  0  0  0  0  0  0  0  0  0  0
   18.9250  137.9225   -2.1000 H   0  0  0  0  0  0  0  0  0  0  0  0
   20.3480  138.4873   -2.6681 H   0  0  0  0  0  0  0  0  0  0  0  0
   20.5053  136.0345   -1.2689 H   0  0  0  0  0  0  0  0  0  0  0  0
   22.1786  138.0643   -2.0046 H   0  0  0  0  0  0  0  0  0  0  0  0
   22.5806  136.5678   -1.4891 H   0  0  0  0  0  0  0  0  0  0  0  0
   22.3596  138.9538    0.0601 H   0  0  0  0  0  0  0  0  0  0  0  0
   23.6044  137.8979    0.0162 H   0  0  0  0  0  0  0  0  0  0  0  0
   23.3130  135.6845    6.1171 H   0  0  0  0  0  0  0  0  0  0  0  0
   23.9221  135.7317    4.6026 H   0  0  0  0  0  0  0  0  0  0  0  0
   24.0180  137.0492    5.5627 H   0  0  0  0  0  0  0  0  0  0  0  0
   21.2074  136.9090    6.6737 H   0  0  0  0  0  0  0  0  0  0  0  0
   21.8303  138.3215    6.1412 H   0  0  0  0  0  0  0  0  0  0  0  0
   20.4217  137.7675    5.5282 H   0  0  0  0  0  0  0  0  0  0  0  0
   21.1253  134.9238    5.1236 H   0  0  0  0  0  0  0  0  0  0  0  0
   20.3856  135.8342    3.9876 H   0  0  0  0  0  0  0  0  0  0  0  0
   21.7617  135.0338    3.6238 H   0  0  0  0  0  0  0  0  0  0  0  0
   20.2947  136.8851    2.1095 H   0  0  0  0  0  0  0  0  0  0  0  0
   20.7749  135.7556    1.0322 H   0  0  0  0  0  0  0  0  0  0  0  0
   19.9851  138.4306    0.2488 H   0  0  0  0  0  0  0  0  0  0  0  0
   18.9791  137.1479    0.1543 H   0  0  0  0  0  0  0  0  0  0  0  0
   23.8911  134.4157   -4.2694 H   0  0  0  0  0  0  0  0  0  0  0  0
  1  2  1  0  0  0  0
  2  3  2  0  0  0  0
  3  4  1  0  0  0  0
  4  5  2  0  0  0  0
  5  6  1  0  0  0  0
  6  7  2  0  0  0  0
  7  8  1  0  0  0  0
  8  9  2  0  0  0  0
  8 10  2  0  0  0  0
  8 11  1  0  0  0  0
 11 12  1  0  0  0  0
 12 13  1  0  0  0  0
 13 14  1  0  0  0  0
 14 15  1  0  0  0  0
 15 16  1  0  0  0  0
 16 17  2  0  0  0  0
 17 18  1  0  0  0  0
 18 19  2  0  0  0  0
 19 20  1  0  0  0  0
 20 21  1  0  0  0  0
 14 22  1  0  0  0  0
 22 23  2  0  0  0  0
 23 24  1  0  0  0  0
 24 25  2  0  0  0  0
 25 26  1  0  0  0  0
 26 27  3  0  0  0  0
 25 28  1  0  0  0  0
 28 29  2  0  0  0  0
 11 30  1  0  0  0  0
 30 31  1  0  0  0  0
 31 32  1  0  0  0  0
 32 33  1  0  0  0  0
 33 34  1  0  0  0  0
 34 35  1  0  0  0  0
 35 36  2  0  0  0  0
 35 37  1  0  0  0  0
 37 38  1  0  0  0  0
 38 39  1  0  0  0  0
 38 40  1  0  0  0  0
 38 41  1  0  0  0  0
 34 42  1  0  0  0  0
 42 43  1  0  0  0  0
  7  2  1  0  0  0  0
 20 16  1  0  0  0  0
 29 22  1  0  0  0  0
 43 31  1  0  0  0  0
  1 44  1  0  0  0  0
  1 45  1  0  0  0  0
  1 46  1  0  0  0  0
  3 47  1  0  0  0  0
  4 48  1  0  0  0  0
  5 49  1  0  0  0  0
  6 50  1  0  0  0  0
 12 51  1  0  0  0  0
 12 52  1  0  0  0  0
 13 53  1  0  0  0  0
 13 54  1  0  0  0  0
 15 55  1  0  0  0  0
 15 56  1  0  0  0  0
 17 57  1  0  0  0  0
 19 58  1  0  0  0  0
 21 59  1  0  0  0  0
 21 60  1  0  0  0  0
 21 61  1  0  0  0  0
 23 62  1  0  0  0  0
 24 63  1  0  0  0  0
 28 64  1  0  0  0  0
 29 65  1  0  0  0  0
 30 66  1  0  0  0  0
 30 67  1  0  0  0  0
 31 68  1  0  0  0  0
 32 69  1  0  0  0  0
 32 70  1  0  0  0  0
 33 71  1  0  0  0  0
 33 72  1  0  0  0  0
 39 73  1  0  0  0  0
 39 74  1  0  0  0  0
 39 75  1  0  0  0  0
 40 76  1  0  0  0  0
 40 77  1  0  0  0  0
 40 78  1  0  0  0  0
 41 79  1  0  0  0  0
 41 80  1  0  0  0  0
 41 81  1  0  0  0  0
 42 82  1  0  0  0  0
 42 83  1  0  0  0  0
 43 84  1  0  0  0  0
 43 85  1  0  0  0  0
 18 86  1  0  0  0  0
M  CHG  1  18   1
M  END
> <BIOSOLVEIT.HYDE_ESTIMATED_AFFINITY_LOWER_BOUNDARY [nM]>
7578701.605040

> <BIOSOLVEIT.HYDE_ESTIMATED_AFFINITY_UPPER_BOUNDARY [nM]>
752988813.290850

> <BIOSOLVEIT.HYDE_LIGAND_EFFICIENCY range: ++, +, 0, -, -->
--

> <BIOSOLVEIT.HYDE_LIGAND_LIPOPHILIC_EFFICIENCY range: ++, +, 0, -, -->
--

> <BIOSOLVEIT.INTER_CLASH range: red, yellow, green>
green

> <BIOSOLVEIT.INTRA_CLASH range: red, yellow, green>
green

> <BIOSOLVEIT.LOGP>
5.0145

> <BIOSOLVEIT.MOLECULAR WEIGHT>
607.795

> <BIOSOLVEIT.MOLECULE_CHECKSUM>
LTYuNDAzMjk7MC4xNDg5MTQ=

> <BIOSOLVEIT.TORSION_QUALITY range: red, yellow, green, not rotatable>
red

> <BIOSOLVEIT.TPSA>
113.02

$$$$
3E37_ED5_3
foHydescor03192112213D 1   1.00000     0.00000     0
Hydescorer 1.1.0 fol007
 86 89  0  0  0  0            999 V2000
   17.0086  138.0103   -4.6686 C   0  0  0  0  0  0  0  0  0  0  0  0
   17.9496  139.1864   -4.8732 C   0  0  0  0  0  0  0  0  0  0  0  0
   17.4395  140.4723   -4.7255 C   0  0  0  0  0  0  0  0  0  0  0  0
   18.2801  141.5651   -4.9077 C   0  0  0  0  0  0  0  0  0  0  0  0
   19.6175  141.3664   -5.2344 C   0  0  0  0  0  0  0  0  0  0  0  0
   20.1292  140.0814   -5.3828 C   0  0  0  0  0  0  0  0  0  0  0  0
   19.2878  138.9882   -5.2009 C   0  0  0  0  0  0  0  0  0  0  0  0
   19.9602  137.3512   -5.3947 S   0  0  0  0  0  0  0  0  0  0  0  0
   21.1962  137.4100   -6.2492 O   0  0  0  0  0  0  0  0  0  0  0  0
   18.9485  136.5328   -6.1468 O   0  0  0  0  0  0  0  0  0  0  0  0
   20.2880  136.5181   -3.8809 N   0  0  0  0  0  0  0  0  0  0  0  0
   19.2247  135.5889   -3.4481 C   0  0  0  0  0  0  0  0  0  0  0  0
   19.1655  134.2749   -4.2497 C   0  0  0  0  0  0  0  0  0  0  0  0
   18.8799  133.1491   -3.3535 N   0  0  0  0  0  0  0  0  0  0  0  0
   19.9337  132.5545   -2.5229 C   0  0  0  0  0  0  0  0  0  0  0  0
   21.2510  133.2831   -2.7386 C   0  0  0  0  0  0  0  0  0  0  0  0
   21.9993  133.2589   -3.8788 C   0  0  0  0  0  0  0  0  0  0  0  0
   23.0928  134.0414   -3.6530 N   0  3  0  0  0  0  0  0  0  0  0  0
   23.0199  134.5233   -2.4307 C   0  0  0  0  0  0  0  0  0  0  0  0
   21.8821  134.0771   -1.8337 N   0  0  0  0  0  0  0  0  0  0  0  0
   21.4252  134.3846   -0.4702 C   0  0  0  0  0  0  0  0  0  0  0  0
   17.5191  132.7431   -3.1532 C   0  0  0  0  0  0  0  0  0  0  0  0
   17.2481  131.6283   -2.3662 C   0  0  0  0  0  0  0  0  0  0  0  0
   15.9331  131.2231   -2.1640 C   0  0  0  0  0  0  0  0  0  0  0  0
   14.9023  131.9448   -2.7554 C   0  0  0  0  0  0  0  0  0  0  0  0
   13.4606  131.5135   -2.5413 C   0  0  0  0  0  0  0  0  0  0  0  0
   12.3630  131.1856   -2.3776 N   0  0  0  0  0  0  0  0  0  0  0  0
   15.1680  133.0605   -3.5428 C   0  0  0  0  0  0  0  0  0  0  0  0
   16.4847  133.4624   -3.7431 C   0  0  0  0  0  0  0  0  0  0  0  0
   20.8174  137.3932   -2.8174 C   0  0  0  0  0  0  0  0  0  0  0  0
   19.8701  137.4142   -1.5997 C   0  0  0  0  0  0  0  0  0  0  0  0
   18.8218  138.5088   -1.7410 C   0  0  0  0  0  0  0  0  0  0  0  0
   18.0308  138.4817   -0.4443 C   0  0  0  0  0  0  0  0  0  0  0  0
   18.9175  138.9322    0.6384 N   0  0  0  0  0  0  0  0  0  0  0  0
   18.3913  139.4699    1.8194 C   0  0  0  0  0  0  0  0  0  0  0  0
   17.1433  139.5879    1.9563 O   0  0  0  0  0  0  0  0  0  0  0  0
   19.2596  139.8733    2.8475 O   0  0  0  0  0  0  0  0  0  0  0  0
   18.8812  140.4336    4.1136 C   0  0  0  0  0  0  0  0  0  0  0  0
   17.9736  139.4595    4.8890 C   0  0  0  0  0  0  0  0  0  0  0  0
   20.1287  140.7922    4.9434 C   0  0  0  0  0  0  0  0  0  0  0  0
   18.0933  141.7199    3.8222 C   0  0  0  0  0  0  0  0  0  0  0  0
   20.3741  138.8070    0.4662 C   0  0  0  0  0  0  0  0  0  0  0  0
   20.6382  137.5100   -0.2894 C   0  0  0  0  0  0  0  0  0  0  0  0
   17.5088  137.1554   -4.8058 H   0  0  0  0  0  0  0  0  0  0  0  0
   16.6405  138.0357   -3.7392 H   0  0  0  0  0  0  0  0  0  0  0  0
   16.2574  138.0661   -5.3263 H   0  0  0  0  0  0  0  0  0  0  0  0
   16.4772  140.6094   -4.4905 H   0  0  0  0  0  0  0  0  0  0  0  0
   17.9232  142.4934   -4.8038 H   0  0  0  0  0  0  0  0  0  0  0  0
   20.2176  142.1557   -5.3640 H   0  0  0  0  0  0  0  0  0  0  0  0
   21.0915  139.9447   -5.6178 H   0  0  0  0  0  0  0  0  0  0  0  0
   18.3446  136.0539   -3.5436 H   0  0  0  0  0  0  0  0  0  0  0  0
   19.3793  135.3623   -2.4864 H   0  0  0  0  0  0  0  0  0  0  0  0
   20.0447  134.1232   -4.7012 H   0  0  0  0  0  0  0  0  0  0  0  0
   18.4438  134.3403   -4.9388 H   0  0  0  0  0  0  0  0  0  0  0  0
   20.0448  131.5920   -2.7703 H   0  0  0  0  0  0  0  0  0  0  0  0
   19.6727  132.6231   -1.5599 H   0  0  0  0  0  0  0  0  0  0  0  0
   21.7864  132.7620   -4.7201 H   0  0  0  0  0  0  0  0  0  0  0  0
   23.6967  135.1247   -2.0062 H   0  0  0  0  0  0  0  0  0  0  0  0
   20.5561  133.9212   -0.2974 H   0  0  0  0  0  0  0  0  0  0  0  0
   22.1078  134.0696    0.1891 H   0  0  0  0  0  0  0  0  0  0  0  0
   21.3009  135.3723   -0.3752 H   0  0  0  0  0  0  0  0  0  0  0  0
   17.9988  131.1184   -1.9459 H   0  0  0  0  0  0  0  0  0  0  0  0
   15.7314  130.4224   -1.5999 H   0  0  0  0  0  0  0  0  0  0  0  0
   14.4171  133.5705   -3.9623 H   0  0  0  0  0  0  0  0  0  0  0  0
   16.6863  134.2630   -4.3074 H   0  0  0  0  0  0  0  0  0  0  0  0
   20.9121  138.3224   -3.1747 H   0  0  0  0  0  0  0  0  0  0  0  0
   21.7129  137.0538   -2.5297 H   0  0  0  0  0  0  0  0  0  0  0  0
   19.3833  136.5408   -1.5914 H   0  0  0  0  0  0  0  0  0  0  0  0
   18.2232  138.3212   -2.5197 H   0  0  0  0  0  0  0  0  0  0  0  0
   19.2603  139.3990   -1.8645 H   0  0  0  0  0  0  0  0  0  0  0  0
   17.7147  137.5512   -0.2591 H   0  0  0  0  0  0  0  0  0  0  0  0
   17.2430  139.0935   -0.5146 H   0  0  0  0  0  0  0  0  0  0  0  0
   17.7209  139.8665    5.7667 H   0  0  0  0  0  0  0  0  0  0  0  0
   17.1475  139.2776    4.3556 H   0  0  0  0  0  0  0  0  0  0  0  0
   18.4634  138.6023    5.0477 H   0  0  0  0  0  0  0  0  0  0  0  0
   19.8455  141.1803    5.8204 H   0  0  0  0  0  0  0  0  0  0  0  0
   20.6709  139.9673    5.1036 H   0  0  0  0  0  0  0  0  0  0  0  0
   20.6796  141.4616    4.4449 H   0  0  0  0  0  0  0  0  0  0  0  0
   17.8114  142.1408    4.6845 H   0  0  0  0  0  0  0  0  0  0  0  0
   18.6722  142.3574    3.3138 H   0  0  0  0  0  0  0  0  0  0  0  0
   17.2835  141.4989    3.2787 H   0  0  0  0  0  0  0  0  0  0  0  0
   20.8220  138.7785    1.3598 H   0  0  0  0  0  0  0  0  0  0  0  0
   20.7237  139.5840   -0.0572 H   0  0  0  0  0  0  0  0  0  0  0  0
   20.3707  136.7424    0.2930 H   0  0  0  0  0  0  0  0  0  0  0  0
   21.6164  137.4517   -0.4892 H   0  0  0  0  0  0  0  0  0  0  0  0
   23.8277  134.2194   -4.3072 H   0  0  0  0  0  0  0  0  0  0  0  0
  1  2  1  0  0  0  0
  2  3  2  0  0  0  0
  3  4  1  0  0  0  0
  4  5  2  0  0  0  0
  5  6  1  0  0  0  0
  6  7  2  0  0  0  0
  7  8  1  0  0  0  0
  8  9  2  0  0  0  0
  8 10  2  0  0  0  0
  8 11  1  0  0  0  0
 11 12  1  0  0  0  0
 12 13  1  0  0  0  0
 13 14  1  0  0  0  0
 14 15  1  0  0  0  0
 15 16  1  0  0  0  0
 16 17  2  0  0  0  0
 17 18  1  0  0  0  0
 18 19  2  0  0  0  0
 19 20  1  0  0  0  0
 20 21  1  0  0  0  0
 14 22  1  0  0  0  0
 22 23  2  0  0  0  0
 23 24  1  0  0  0  0
 24 25  2  0  0  0  0
 25 26  1  0  0  0  0
 26 27  3  0  0  0  0
 25 28  1  0  0  0  0
 28 29  2  0  0  0  0
 11 30  1  0  0  0  0
 30 31  1  0  0  0  0
 31 32  1  0  0  0  0
 32 33  1  0  0  0  0
 33 34  1  0  0  0  0
 34 35  1  0  0  0  0
 35 36  2  0  0  0  0
 35 37  1  0  0  0  0
 37 38  1  0  0  0  0
 38 39  1  0  0  0  0
 38 40  1  0  0  0  0
 38 41  1  0  0  0  0
 34 42  1  0  0  0  0
 42 43  1  0  0  0  0
  7  2  1  0  0  0  0
 20 16  1  0  0  0  0
 29 22  1  0  0  0  0
 43 31  1  0  0  0  0
  1 44  1  0  0  0  0
  1 45  1  0  0  0  0
  1 46  1  0  0  0  0
  3 47  1  0  0  0  0
  4 48  1  0  0  0  0
  5 49  1  0  0  0  0
  6 50  1  0  0  0  0
 12 51  1  0  0  0  0
 12 52  1  0  0  0  0
 13 53  1  0  0  0  0
 13 54  1  0  0  0  0
 15 55  1  0  0  0  0
 15 56  1  0  0  0  0
 17 57  1  0  0  0  0
 19 58  1  0  0  0  0
 21 59  1  0  0  0  0
 21 60  1  0  0  0  0
 21 61  1  0  0  0  0
 23 62  1  0  0  0  0
 24 63  1  0  0  0  0
 28 64  1  0  0  0  0
 29 65  1  0  0  0  0
 30 66  1  0  0  0  0
 30 67  1  0  0  0  0
 31 68  1  0  0  0  0
 32 69  1  0  0  0  0
 32 70  1  0  0  0  0
 33 71  1  0  0  0  0
 33 72  1  0  0  0  0
 39 73  1  0  0  0  0
 39 74  1  0  0  0  0
 39 75  1  0  0  0  0
 40 76  1  0  0  0  0
 40 77  1  0  0  0  0
 40 78  1  0  0  0  0
 41 79  1  0  0  0  0
 41 80  1  0  0  0  0
 41 81  1  0  0  0  0
 42 82  1  0  0  0  0
 42 83  1  0  0  0  0
 43 84  1  0  0  0  0
 43 85  1  0  0  0  0
 18 86  1  0  0  0  0
M  CHG  1  18   1
M  END
> <BIOSOLVEIT.HYDE_ESTIMATED_AFFINITY_LOWER_BOUNDARY [nM]>
2350129.410580

> <BIOSOLVEIT.HYDE_ESTIMATED_AFFINITY_UPPER_BOUNDARY [nM]>
233499252.005846

> <BIOSOLVEIT.HYDE_LIGAND_EFFICIENCY range: ++, +, 0, -, -->
--

> <BIOSOLVEIT.HYDE_LIGAND_LIPOPHILIC_EFFICIENCY range: ++, +, 0, -, -->
--

> <BIOSOLVEIT.INTER_CLASH range: red, yellow, green>
green

> <BIOSOLVEIT.INTRA_CLASH range: red, yellow, green>
yellow

> <BIOSOLVEIT.LOGP>
5.0145

> <BIOSOLVEIT.MOLECULAR WEIGHT>
607.795

> <BIOSOLVEIT.MOLECULE_CHECKSUM>
LTkuMzA1ODM7MC4yMTY0MTU=

> <BIOSOLVEIT.TORSION_QUALITY range: red, yellow, green, not rotatable>
red

> <BIOSOLVEIT.TPSA>
113.02

$$$$
2IEJ_S48_1
foHydescor03192112213D 1   1.00000     0.00000     0
Hydescorer 1.1.0 fol007
 68 72  0  0  0  0            999 V2000
   17.7218  134.8127   -6.7301 C   0  0  0  0  0  0  0  0  0  0  0  0
   16.4742  134.5867   -7.3741 O   0  0  0  0  0  0  0  0  0  0  0  0
   15.7764  135.5990   -8.0388 C   0  0  0  0  0  0  0  0  0  0  0  0
   16.1833  136.0411   -9.1479 O   0  0  0  0  0  0  0  0  0  0  0  0
   14.5186  136.1446   -7.4405 C   0  0  0  0  0  0  0  0  0  0  0  0
   14.8330  137.2377   -6.5000 N   0  0  0  0  0  0  0  0  0  0  0  0
   15.5881  136.7849   -5.3221 C   0  0  1  0  0  0  0  0  0  0  0  0
   15.5997  137.8608   -4.2465 C   0  0  0  0  0  0  0  0  0  0  0  0
   16.1285  137.3636   -2.9148 C   0  0  0  0  0  0  0  0  0  0  0  0
   16.5406  138.3114   -1.9852 C   0  0  0  0  0  0  0  0  0  0  0  0
   17.0005  137.8954   -0.7404 C   0  0  0  0  0  0  0  0  0  0  0  0
   17.4350  138.8696    0.2413 C   0  0  0  0  0  0  0  0  0  0  0  0
   16.8629  140.1371    0.2465 C   0  0  0  0  0  0  0  0  0  0  0  0
   17.2847  141.0672    1.1907 C   0  0  0  0  0  0  0  0  0  0  0  0
   18.2656  140.7341    2.1181 C   0  0  0  0  0  0  0  0  0  0  0  0
   18.8326  139.4637    2.1051 C   0  0  0  0  0  0  0  0  0  0  0  0
   18.4174  138.5267    1.1646 C   0  0  0  0  0  0  0  0  0  0  0  0
   17.0468  136.5406   -0.4325 C   0  0  0  0  0  0  0  0  0  0  0  0
   16.6358  135.6177   -1.3871 C   0  0  0  0  0  0  0  0  0  0  0  0
   16.1698  135.9979   -2.6477 C   0  0  0  0  0  0  0  0  0  0  0  0
   15.7605  135.0572   -3.6028 N   0  0  0  0  0  0  0  0  0  0  0  0
   16.1384  133.6449   -3.5337 C   0  0  0  0  0  0  0  0  0  0  0  0
   14.9571  132.7669   -3.2315 C   0  0  0  0  0  0  0  0  0  0  0  0
   13.6670  133.0087   -3.6027 C   0  0  0  0  0  0  0  0  0  0  0  0
   12.9177  131.9709   -3.1333 N   0  0  0  0  0  0  0  0  0  0  0  0
   13.7104  131.1310   -2.5027 C   0  0  0  0  0  0  0  0  0  0  0  0
   14.9894  131.5916   -2.5496 N   0  0  0  0  0  0  0  0  0  0  0  0
   16.1776  130.9494   -1.9681 C   0  0  0  0  0  0  0  0  0  0  0  0
   14.9909  135.4954   -4.7832 C   0  0  0  0  0  0  0  0  0  0  0  0
   15.5571  138.5872   -7.3556 S   0  0  0  0  0  0  0  0  0  0  0  0
   15.1046  139.8833   -6.7407 O   0  0  0  0  0  0  0  0  0  0  0  0
   15.1869  138.5694   -8.8125 O   0  0  0  0  0  0  0  0  0  0  0  0
   17.3004  138.4668   -7.2243 C   0  0  0  0  0  0  0  0  0  0  0  0
   18.0537  139.0247   -6.2373 C   0  0  0  0  0  0  0  0  0  0  0  0
   19.3385  138.6855   -6.5233 N   0  0  0  0  0  0  0  0  0  0  0  0
   20.5230  139.0586   -5.7371 C   0  0  0  0  0  0  0  0  0  0  0  0
   19.3426  137.9385   -7.6610 C   0  0  0  0  0  0  0  0  0  0  0  0
   18.1113  137.7997   -8.0938 N   0  0  0  0  0  0  0  0  0  0  0  0
   18.0444  133.9598   -6.3198 H   0  0  0  0  0  0  0  0  0  0  0  0
   18.3901  135.1335   -7.4013 H   0  0  0  0  0  0  0  0  0  0  0  0
   17.6080  135.5038   -6.0163 H   0  0  0  0  0  0  0  0  0  0  0  0
   14.0422  135.4145   -6.9507 H   0  0  0  0  0  0  0  0  0  0  0  0
   13.9311  136.4953   -8.1698 H   0  0  0  0  0  0  0  0  0  0  0  0
   16.5316  136.6050   -5.6005 H   0  0  0  0  0  0  0  0  0  0  0  0
   14.6645  138.1898   -4.1150 H   0  0  0  0  0  0  0  0  0  0  0  0
   16.1778  138.6153   -4.5570 H   0  0  0  0  0  0  0  0  0  0  0  0
   16.5066  139.2852   -2.2100 H   0  0  0  0  0  0  0  0  0  0  0  0
   16.1573  140.3768   -0.4201 H   0  0  0  0  0  0  0  0  0  0  0  0
   16.8797  141.9814    1.2027 H   0  0  0  0  0  0  0  0  0  0  0  0
   18.5636  141.4077    2.7944 H   0  0  0  0  0  0  0  0  0  0  0  0
   19.5384  139.2244    2.7717 H   0  0  0  0  0  0  0  0  0  0  0  0
   18.8225  137.6125    1.1523 H   0  0  0  0  0  0  0  0  0  0  0  0
   17.3711  136.2345    0.4625 H   0  0  0  0  0  0  0  0  0  0  0  0
   16.6753  134.6440   -1.1626 H   0  0  0  0  0  0  0  0  0  0  0  0
   16.8221  133.5273   -2.8135 H   0  0  0  0  0  0  0  0  0  0  0  0
   16.5293  133.3708   -4.4124 H   0  0  0  0  0  0  0  0  0  0  0  0
   13.3343  133.7968   -4.1203 H   0  0  0  0  0  0  0  0  0  0  0  0
   13.4177  130.2847   -2.0576 H   0  0  0  0  0  0  0  0  0  0  0  0
   16.9845  131.5096   -2.1553 H   0  0  0  0  0  0  0  0  0  0  0  0
   16.0570  130.8583   -0.9795 H   0  0  0  0  0  0  0  0  0  0  0  0
   16.2992  130.0436   -2.3739 H   0  0  0  0  0  0  0  0  0  0  0  0
   14.0385  135.6520   -4.5217 H   0  0  0  0  0  0  0  0  0  0  0  0
   15.0308  134.7883   -5.4892 H   0  0  0  0  0  0  0  0  0  0  0  0
   17.7298  139.5698   -5.4640 H   0  0  0  0  0  0  0  0  0  0  0  0
   21.3420  138.6799   -6.1681 H   0  0  0  0  0  0  0  0  0  0  0  0
   20.5971  140.0552   -5.6985 H   0  0  0  0  0  0  0  0  0  0  0  0
   20.4358  138.6947   -4.8098 H   0  0  0  0  0  0  0  0  0  0  0  0
   20.1562  137.5555   -8.0985 H   0  0  0  0  0  0  0  0  0  0  0  0
  1  2  1  0  0  0  0
  2  3  1  0  0  0  0
  3  4  2  0  0  0  0
  3  5  1  0  0  0  0
  5  6  1  0  0  0  0
  6  7  1  0  0  0  0
  7  8  1  0  0  0  0
  8  9  1  0  0  0  0
  9 10  2  0  0  0  0
 10 11  1  0  0  0  0
 11 12  1  0  0  0  0
 12 13  2  0  0  0  0
 13 14  1  0  0  0  0
 14 15  2  0  0  0  0
 15 16  1  0  0  0  0
 16 17  2  0  0  0  0
 11 18  2  0  0  0  0
 18 19  1  0  0  0  0
 19 20  2  0  0  0  0
 20 21  1  0  0  0  0
 21 22  1  0  0  0  0
 22 23  1  0  0  0  0
 23 24  2  0  0  0  0
 24 25  1  0  0  0  0
 25 26  2  0  0  0  0
 26 27  1  0  0  0  0
 27 28  1  0  0  0  0
 21 29  1  0  0  0  0
  6 30  1  0  0  0  0
 30 31  2  0  0  0  0
 30 32  2  0  0  0  0
 30 33  1  0  0  0  0
 33 34  2  0  0  0  0
 34 35  1  0  0  0  0
 35 36  1  0  0  0  0
 35 37  1  0  0  0  0
 37 38  2  0  0  0  0
 29  7  1  0  0  0  0
 38 33  1  0  0  0  0
 20  9  1  0  0  0  0
 27 23  1  0  0  0  0
 17 12  1  0  0  0  0
  1 39  1  0  0  0  0
  1 40  1  0  0  0  0
  1 41  1  0  0  0  0
  5 42  1  0  0  0  0
  5 43  1  0  0  0  0
  7 44  1  0  0  0  0
  8 45  1  0  0  0  0
  8 46  1  0  0  0  0
 10 47  1  0  0  0  0
 13 48  1  0  0  0  0
 14 49  1  0  0  0  0
 15 50  1  0  0  0  0
 16 51  1  0  0  0  0
 17 52  1  0  0  0  0
 18 53  1  0  0  0  0
 19 54  1  0  0  0  0
 22 55  1  0  0  0  0
 22 56  1  0  0  0  0
 24 57  1  0  0  0  0
 26 58  1  0  0  0  0
 28 59  1  0  0  0  0
 28 60  1  0  0  0  0
 28 61  1  0  0  0  0
 29 62  1  0  0  0  0
 29 63  1  0  0  0  0
 34 64  1  0  0  0  0
 36 65  1  0  0  0  0
 36 66  1  0  0  0  0
 36 67  1  0  0  0  0
 37 68  1  0  0  0  0
M  END
> <BIOSOLVEIT.HYDE_ESTIMATED_AFFINITY_LOWER_BOUNDARY [nM]>
1601441545.244997

> <BIOSOLVEIT.HYDE_ESTIMATED_AFFINITY_UPPER_BOUNDARY [nM]>
159112685991.851837

> <BIOSOLVEIT.HYDE_LIGAND_EFFICIENCY range: ++, +, 0, -, -->
--

> <BIOSOLVEIT.HYDE_LIGAND_LIPOPHILIC_EFFICIENCY range: ++, +, 0, -, -->
--

> <BIOSOLVEIT.INTER_CLASH range: red, yellow, green>
green

> <BIOSOLVEIT.INTRA_CLASH range: red, yellow, green>
green

> <BIOSOLVEIT.LOGP>
3.2664

> <BIOSOLVEIT.MOLECULAR WEIGHT>
534.637

> <BIOSOLVEIT.MOLECULE_CHECKSUM>
Ni44NjczNTsw

> <BIOSOLVEIT.TORSION_QUALITY range: red, yellow, green, not rotatable>
red

> <BIOSOLVEIT.TPSA>
102.56

$$$$
2IEJ_S48_2
foHydescor03192112213D 1   1.00000     0.00000     0
Hydescorer 1.1.0 fol007
 68 72  0  0  0  0            999 V2000
   14.4457  133.0895   -5.9353 C   0  0  0  0  0  0  0  0  0  0  0  0
   15.6490  133.7609   -6.2866 O   0  0  0  0  0  0  0  0  0  0  0  0
   15.7075  134.7168   -7.3048 C   0  0  0  0  0  0  0  0  0  0  0  0
   16.7259  134.8103   -8.0432 O   0  0  0  0  0  0  0  0  0  0  0  0
   14.5382  135.6202   -7.5377 C   0  0  0  0  0  0  0  0  0  0  0  0
   14.7735  136.9330   -6.9061 N   0  0  0  0  0  0  0  0  0  0  0  0
   15.4301  136.8317   -5.5941 C   0  0  1  0  0  0  0  0  0  0  0  0
   15.6937  138.2149   -5.0180 C   0  0  0  0  0  0  0  0  0  0  0  0
   16.1224  138.1806   -3.5636 C   0  0  0  0  0  0  0  0  0  0  0  0
   16.7462  139.3091   -3.0441 C   0  0  0  0  0  0  0  0  0  0  0  0
   17.1240  139.3279   -1.7058 C   0  0  0  0  0  0  0  0  0  0  0  0
   17.7763  140.4956   -1.1468 C   0  0  0  0  0  0  0  0  0  0  0  0
   18.1004  141.5619   -1.9787 C   0  0  0  0  0  0  0  0  0  0  0  0
   18.7266  142.6789   -1.4361 C   0  0  0  0  0  0  0  0  0  0  0  0
   19.0248  142.7295   -0.0791 C   0  0  0  0  0  0  0  0  0  0  0  0
   18.6973  141.6579    0.7455 C   0  0  0  0  0  0  0  0  0  0  0  0
   18.0708  140.5363    0.2122 C   0  0  0  0  0  0  0  0  0  0  0  0
   16.8783  138.2241   -0.8973 C   0  0  0  0  0  0  0  0  0  0  0  0
   16.2603  137.1081   -1.4493 C   0  0  0  0  0  0  0  0  0  0  0  0
   15.8685  137.0520   -2.7889 C   0  0  0  0  0  0  0  0  0  0  0  0
   15.2485  135.9198   -3.3344 N   0  0  0  0  0  0  0  0  0  0  0  0
   15.3099  134.6022   -2.7000 C   0  0  0  0  0  0  0  0  0  0  0  0
   16.7100  134.2492   -2.2846 C   0  0  0  0  0  0  0  0  0  0  0  0
   17.0896  133.8086   -1.0508 C   0  0  0  0  0  0  0  0  0  0  0  0
   18.4367  133.6040   -1.0992 N   0  0  0  0  0  0  0  0  0  0  0  0
   18.8648  133.9054   -2.3065 C   0  0  0  0  0  0  0  0  0  0  0  0
   17.8152  134.3050   -3.0739 N   0  0  0  0  0  0  0  0  0  0  0  0
   17.8649  134.7256   -4.4822 C   0  0  0  0  0  0  0  0  0  0  0  0
   14.5745  136.0101   -4.6440 C   0  0  0  0  0  0  0  0  0  0  0  0
   15.5639  138.0186   -8.0350 S   0  0  0  0  0  0  0  0  0  0  0  0
   15.0967  139.4288   -7.7990 O   0  0  0  0  0  0  0  0  0  0  0  0
   15.2752  137.6283   -9.4577 O   0  0  0  0  0  0  0  0  0  0  0  0
   17.2951  137.9361   -7.7770 C   0  0  0  0  0  0  0  0  0  0  0  0
   17.9665  138.5375   -6.7568 C   0  0  0  0  0  0  0  0  0  0  0  0
   19.2739  138.2151   -6.9406 N   0  0  0  0  0  0  0  0  0  0  0  0
   20.3928  138.6343   -6.0844 C   0  0  0  0  0  0  0  0  0  0  0  0
   19.3722  137.4350   -8.0515 C   0  0  0  0  0  0  0  0  0  0  0  0
   18.1775  137.2594   -8.5659 N   0  0  0  0  0  0  0  0  0  0  0  0
   14.6264  132.4514   -5.1868 H   0  0  0  0  0  0  0  0  0  0  0  0
   13.7628  133.7596   -5.6445 H   0  0  0  0  0  0  0  0  0  0  0  0
   14.1018  132.5853   -6.7274 H   0  0  0  0  0  0  0  0  0  0  0  0
   13.7176  135.2064   -7.1434 H   0  0  0  0  0  0  0  0  0  0  0  0
   14.4086  135.7455   -8.5214 H   0  0  0  0  0  0  0  0  0  0  0  0
   16.3070  136.3660   -5.7138 H   0  0  0  0  0  0  0  0  0  0  0  0
   14.8552  138.7551   -5.0902 H   0  0  0  0  0  0  0  0  0  0  0  0
   16.4177  138.6502   -5.5532 H   0  0  0  0  0  0  0  0  0  0  0  0
   16.9221  140.1013   -3.6284 H   0  0  0  0  0  0  0  0  0  0  0  0
   17.8859  141.5259   -2.9548 H   0  0  0  0  0  0  0  0  0  0  0  0
   18.9639  143.4509   -2.0259 H   0  0  0  0  0  0  0  0  0  0  0  0
   19.4748  143.5361    0.3043 H   0  0  0  0  0  0  0  0  0  0  0  0
   18.9122  141.6939    1.7215 H   0  0  0  0  0  0  0  0  0  0  0  0
   17.8336  139.7643    0.8018 H   0  0  0  0  0  0  0  0  0  0  0  0
   17.1421  138.2328    0.0672 H   0  0  0  0  0  0  0  0  0  0  0  0
   16.0897  136.3148   -0.8650 H   0  0  0  0  0  0  0  0  0  0  0  0
   14.9811  133.9150   -3.3479 H   0  0  0  0  0  0  0  0  0  0  0  0
   14.7228  134.6048   -1.8905 H   0  0  0  0  0  0  0  0  0  0  0  0
   16.4934  133.6634   -0.2612 H   0  0  0  0  0  0  0  0  0  0  0  0
   19.8152  133.8494   -2.6125 H   0  0  0  0  0  0  0  0  0  0  0  0
   16.9445  134.9652   -4.7911 H   0  0  0  0  0  0  0  0  0  0  0  0
   18.4642  135.5212   -4.5715 H   0  0  0  0  0  0  0  0  0  0  0  0
   18.2198  133.9764   -5.0415 H   0  0  0  0  0  0  0  0  0  0  0  0
   13.6836  136.4502   -4.5315 H   0  0  0  0  0  0  0  0  0  0  0  0
   14.4477  135.0915   -5.0184 H   0  0  0  0  0  0  0  0  0  0  0  0
   17.5789  139.0987   -6.0255 H   0  0  0  0  0  0  0  0  0  0  0  0
   21.2469  138.2590   -6.4446 H   0  0  0  0  0  0  0  0  0  0  0  0
   20.4467  139.6327   -6.0715 H   0  0  0  0  0  0  0  0  0  0  0  0
   20.2460  138.2963   -5.1548 H   0  0  0  0  0  0  0  0  0  0  0  0
   20.2215  137.0551   -8.4183 H   0  0  0  0  0  0  0  0  0  0  0  0
  1  2  1  0  0  0  0
  2  3  1  0  0  0  0
  3  4  2  0  0  0  0
  3  5  1  0  0  0  0
  5  6  1  0  0  0  0
  6  7  1  0  0  0  0
  7  8  1  0  0  0  0
  8  9  1  0  0  0  0
  9 10  2  0  0  0  0
 10 11  1  0  0  0  0
 11 12  1  0  0  0  0
 12 13  2  0  0  0  0
 13 14  1  0  0  0  0
 14 15  2  0  0  0  0
 15 16  1  0  0  0  0
 16 17  2  0  0  0  0
 11 18  2  0  0  0  0
 18 19  1  0  0  0  0
 19 20  2  0  0  0  0
 20 21  1  0  0  0  0
 21 22  1  0  0  0  0
 22 23  1  0  0  0  0
 23 24  2  0  0  0  0
 24 25  1  0  0  0  0
 25 26  2  0  0  0  0
 26 27  1  0  0  0  0
 27 28  1  0  0  0  0
 21 29  1  0  0  0  0
  6 30  1  0  0  0  0
 30 31  2  0  0  0  0
 30 32  2  0  0  0  0
 30 33  1  0  0  0  0
 33 34  2  0  0  0  0
 34 35  1  0  0  0  0
 35 36  1  0  0  0  0
 35 37  1  0  0  0  0
 37 38  2  0  0  0  0
 29  7  1  0  0  0  0
 38 33  1  0  0  0  0
 20  9  1  0  0  0  0
 27 23  1  0  0  0  0
 17 12  1  0  0  0  0
  1 39  1  0  0  0  0
  1 40  1  0  0  0  0
  1 41  1  0  0  0  0
  5 42  1  0  0  0  0
  5 43  1  0  0  0  0
  7 44  1  0  0  0  0
  8 45  1  0  0  0  0
  8 46  1  0  0  0  0
 10 47  1  0  0  0  0
 13 48  1  0  0  0  0
 14 49  1  0  0  0  0
 15 50  1  0  0  0  0
 16 51  1  0  0  0  0
 17 52  1  0  0  0  0
 18 53  1  0  0  0  0
 19 54  1  0  0  0  0
 22 55  1  0  0  0  0
 22 56  1  0  0  0  0
 24 57  1  0  0  0  0
 26 58  1  0  0  0  0
 28 59  1  0  0  0  0
 28 60  1  0  0  0  0
 28 61  1  0  0  0  0
 29 62  1  0  0  0  0
 29 63  1  0  0  0  0
 34 64  1  0  0  0  0
 36 65  1  0  0  0  0
 36 66  1  0  0  0  0
 36 67  1  0  0  0  0
 37 68  1  0  0  0  0
M  END
> <BIOSOLVEIT.HYDE_ESTIMATED_AFFINITY_LOWER_BOUNDARY [nM]>
16337863135.741934

> <BIOSOLVEIT.HYDE_ESTIMATED_AFFINITY_UPPER_BOUNDARY [nM]>
1623263299627.626953

> <BIOSOLVEIT.HYDE_LIGAND_EFFICIENCY range: ++, +, 0, -, -->
--

> <BIOSOLVEIT.HYDE_LIGAND_LIPOPHILIC_EFFICIENCY range: ++, +, 0, -, -->
--

> <BIOSOLVEIT.INTER_CLASH range: red, yellow, green>
green

> <BIOSOLVEIT.INTRA_CLASH range: red, yellow, green>
red

> <BIOSOLVEIT.LOGP>
3.2664

> <BIOSOLVEIT.MOLECULAR WEIGHT>
534.637

> <BIOSOLVEIT.MOLECULE_CHECKSUM>
MTIuNjI0OTsw

> <BIOSOLVEIT.TORSION_QUALITY range: red, yellow, green, not rotatable>
red

> <BIOSOLVEIT.TPSA>
102.56

$$$$
2IEJ_S48_3
foHydescor03192112213D 1   1.00000     0.00000     0
Hydescorer 1.1.0 fol007
 68 72  0  0  0  0            999 V2000
   17.8400  134.8897   -6.9113 C   0  0  0  0  0  0  0  0  0  0  0  0
   16.5227  134.6218   -7.3752 O   0  0  0  0  0  0  0  0  0  0  0  0
   15.7296  135.5941   -7.9910 C   0  0  0  0  0  0  0  0  0  0  0  0
   16.0548  136.0771   -9.1099 O   0  0  0  0  0  0  0  0  0  0  0  0
   14.4675  136.0465   -7.3276 C   0  0  0  0  0  0  0  0  0  0  0  0
   14.7580  137.1157   -6.3527 N   0  0  0  0  0  0  0  0  0  0  0  0
   15.4942  136.6357   -5.1735 C   0  0  1  0  0  0  0  0  0  0  0  0
   15.2559  137.5525   -3.9829 C   0  0  0  0  0  0  0  0  0  0  0  0
   15.7663  136.9744   -2.6768 C   0  0  0  0  0  0  0  0  0  0  0  0
   15.9530  137.8460   -1.6103 C   0  0  0  0  0  0  0  0  0  0  0  0
   16.3881  137.3481   -0.3868 C   0  0  0  0  0  0  0  0  0  0  0  0
   16.5892  138.2422    0.7364 C   0  0  0  0  0  0  0  0  0  0  0  0
   16.3400  139.6015    0.5817 C   0  0  0  0  0  0  0  0  0  0  0  0
   16.5354  140.4540    1.6631 C   0  0  0  0  0  0  0  0  0  0  0  0
   16.9741  139.9537    2.8839 C   0  0  0  0  0  0  0  0  0  0  0  0
   17.2214  138.5924    3.0294 C   0  0  0  0  0  0  0  0  0  0  0  0
   17.0288  137.7319    1.9537 C   0  0  0  0  0  0  0  0  0  0  0  0
   16.6339  135.9882   -0.2362 C   0  0  0  0  0  0  0  0  0  0  0  0
   16.4456  135.1443   -1.3245 C   0  0  0  0  0  0  0  0  0  0  0  0
   16.0115  135.6081   -2.5685 C   0  0  0  0  0  0  0  0  0  0  0  0
   15.8278  134.7474   -3.6591 N   0  0  0  0  0  0  0  0  0  0  0  0
   16.4257  133.4130   -3.7222 C   0  0  0  0  0  0  0  0  0  0  0  0
   17.8920  133.4440   -3.3963 C   0  0  0  0  0  0  0  0  0  0  0  0
   18.8410  134.1692   -4.0551 C   0  0  0  0  0  0  0  0  0  0  0  0
   20.0319  133.9151   -3.4417 N   0  0  0  0  0  0  0  0  0  0  0  0
   19.8242  133.0725   -2.4525 C   0  0  0  0  0  0  0  0  0  0  0  0
   18.5012  132.7624   -2.3904 N   0  0  0  0  0  0  0  0  0  0  0  0
   17.8538  131.8579   -1.4285 C   0  0  0  0  0  0  0  0  0  0  0  0
   15.0800  135.2111   -4.8436 C   0  0  0  0  0  0  0  0  0  0  0  0
   15.4895  138.4915   -7.1585 S   0  0  0  0  0  0  0  0  0  0  0  0
   15.0682  139.7650   -6.4777 O   0  0  0  0  0  0  0  0  0  0  0  0
   15.0948  138.5460   -8.6080 O   0  0  0  0  0  0  0  0  0  0  0  0
   17.2325  138.3386   -7.0631 C   0  0  0  0  0  0  0  0  0  0  0  0
   18.0011  138.7537   -6.0191 C   0  0  0  0  0  0  0  0  0  0  0  0
   19.2793  138.4434   -6.3612 N   0  0  0  0  0  0  0  0  0  0  0  0
   20.4752  138.6980   -5.5454 C   0  0  0  0  0  0  0  0  0  0  0  0
   19.2648  137.8537   -7.5878 C   0  0  0  0  0  0  0  0  0  0  0  0
   18.0279  137.7849   -8.0219 N   0  0  0  0  0  0  0  0  0  0  0  0
   18.2257  134.0609   -6.5062 H   0  0  0  0  0  0  0  0  0  0  0  0
   18.4105  135.1823   -7.6787 H   0  0  0  0  0  0  0  0  0  0  0  0
   17.8100  135.6144   -6.2230 H   0  0  0  0  0  0  0  0  0  0  0  0
   14.0479  135.2724   -6.8535 H   0  0  0  0  0  0  0  0  0  0  0  0
   13.8365  136.3944   -8.0210 H   0  0  0  0  0  0  0  0  0  0  0  0
   16.4712  136.6403   -5.3864 H   0  0  0  0  0  0  0  0  0  0  0  0
   14.2728  137.7140   -3.8970 H   0  0  0  0  0  0  0  0  0  0  0  0
   15.7230  138.4206   -4.1509 H   0  0  0  0  0  0  0  0  0  0  0  0
   15.7758  138.8237   -1.7219 H   0  0  0  0  0  0  0  0  0  0  0  0
   16.0242  139.9616   -0.2962 H   0  0  0  0  0  0  0  0  0  0  0  0
   16.3591  141.4331    1.5619 H   0  0  0  0  0  0  0  0  0  0  0  0
   17.1120  140.5724    3.6574 H   0  0  0  0  0  0  0  0  0  0  0  0
   17.5374  138.2325    3.9073 H   0  0  0  0  0  0  0  0  0  0  0  0
   17.2052  136.7527    2.0547 H   0  0  0  0  0  0  0  0  0  0  0  0
   16.9415  135.6225    0.6421 H   0  0  0  0  0  0  0  0  0  0  0  0
   16.6279  134.1675   -1.2126 H   0  0  0  0  0  0  0  0  0  0  0  0
   16.3066  133.0480   -4.6456 H   0  0  0  0  0  0  0  0  0  0  0  0
   15.9606  132.8184   -3.0662 H   0  0  0  0  0  0  0  0  0  0  0  0
   18.6918  134.7724   -4.8387 H   0  0  0  0  0  0  0  0  0  0  0  0
   20.5300  132.7154   -1.8408 H   0  0  0  0  0  0  0  0  0  0  0  0
   16.8726  131.8176   -1.6172 H   0  0  0  0  0  0  0  0  0  0  0  0
   18.2477  130.9427   -1.5145 H   0  0  0  0  0  0  0  0  0  0  0  0
   18.0010  132.1982   -0.4998 H   0  0  0  0  0  0  0  0  0  0  0  0
   14.0991  135.1846   -4.6508 H   0  0  0  0  0  0  0  0  0  0  0  0
   15.2831  134.6157   -5.6210 H   0  0  0  0  0  0  0  0  0  0  0  0
   17.6904  139.1946   -5.1771 H   0  0  0  0  0  0  0  0  0  0  0  0
   21.2860  138.3720   -6.0316 H   0  0  0  0  0  0  0  0  0  0  0  0
   20.5603  139.6799   -5.3761 H   0  0  0  0  0  0  0  0  0  0  0  0
   20.3929  138.2154   -4.6735 H   0  0  0  0  0  0  0  0  0  0  0  0
   20.0701  137.5245   -8.0810 H   0  0  0  0  0  0  0  0  0  0  0  0
  1  2  1  0  0  0  0
  2  3  1  0  0  0  0
  3  4  2  0  0  0  0
  3  5  1  0  0  0  0
  5  6  1  0  0  0  0
  6  7  1  0  0  0  0
  7  8  1  0  0  0  0
  8  9  1  0  0  0  0
  9 10  2  0  0  0  0
 10 11  1  0  0  0  0
 11 12  1  0  0  0  0
 12 13  2  0  0  0  0
 13 14  1  0  0  0  0
 14 15  2  0  0  0  0
 15 16  1  0  0  0  0
 16 17  2  0  0  0  0
 11 18  2  0  0  0  0
 18 19  1  0  0  0  0
 19 20  2  0  0  0  0
 20 21  1  0  0  0  0
 21 22  1  0  0  0  0
 22 23  1  0  0  0  0
 23 24  2  0  0  0  0
 24 25  1  0  0  0  0
 25 26  2  0  0  0  0
 26 27  1  0  0  0  0
 27 28  1  0  0  0  0
 21 29  1  0  0  0  0
  6 30  1  0  0  0  0
 30 31  2  0  0  0  0
 30 32  2  0  0  0  0
 30 33  1  0  0  0  0
 33 34  2  0  0  0  0
 34 35  1  0  0  0  0
 35 36  1  0  0  0  0
 35 37  1  0  0  0  0
 37 38  2  0  0  0  0
 29  7  1  0  0  0  0
 38 33  1  0  0  0  0
 20  9  1  0  0  0  0
 27 23  1  0  0  0  0
 17 12  1  0  0  0  0
  1 39  1  0  0  0  0
  1 40  1  0  0  0  0
  1 41  1  0  0  0  0
  5 42  1  0  0  0  0
  5 43  1  0  0  0  0
  7 44  1  0  0  0  0
  8 45  1  0  0  0  0
  8 46  1  0  0  0  0
 10 47  1  0  0  0  0
 13 48  1  0  0  0  0
 14 49  1  0  0  0  0
 15 50  1  0  0  0  0
 16 51  1  0  0  0  0
 17 52  1  0  0  0  0
 18 53  1  0  0  0  0
 19 54  1  0  0  0  0
 22 55  1  0  0  0  0
 22 56  1  0  0  0  0
 24 57  1  0  0  0  0
 26 58  1  0  0  0  0
 28 59  1  0  0  0  0
 28 60  1  0  0  0  0
 28 61  1  0  0  0  0
 29 62  1  0  0  0  0
 29 63  1  0  0  0  0
 34 64  1  0  0  0  0
 36 65  1  0  0  0  0
 36 66  1  0  0  0  0
 36 67  1  0  0  0  0
 37 68  1  0  0  0  0
M  END
> <BIOSOLVEIT.HYDE_ESTIMATED_AFFINITY_LOWER_BOUNDARY [nM]>
1302493299.267104

> <BIOSOLVEIT.HYDE_ESTIMATED_AFFINITY_UPPER_BOUNDARY [nM]>
129410410232.034256

> <BIOSOLVEIT.HYDE_LIGAND_EFFICIENCY range: ++, +, 0, -, -->
--

> <BIOSOLVEIT.HYDE_LIGAND_LIPOPHILIC_EFFICIENCY range: ++, +, 0, -, -->
--

> <BIOSOLVEIT.INTER_CLASH range: red, yellow, green>
yellow

> <BIOSOLVEIT.INTRA_CLASH range: red, yellow, green>
yellow

> <BIOSOLVEIT.LOGP>
3.2664

> <BIOSOLVEIT.MOLECULAR WEIGHT>
534.637

> <BIOSOLVEIT.MOLECULE_CHECKSUM>
Ni4zNTUxNDsw

> <BIOSOLVEIT.TORSION_QUALITY range: red, yellow, green, not rotatable>
red

> <BIOSOLVEIT.TPSA>
102.56

$$$$
