1JCQ_739_1
foHydescor03192112173D 1   1.00000     0.00000     0
Hydescorer 1.1.0 fol007
 74 74  0  0  0  0            999 V2000
   19.7685  132.7850   -2.0835 C   0  0  0  0  0  0  0  0  0  0  0  0
   20.1428  134.2589   -2.2578 C   0  0  0  0  0  0  0  0  0  0  0  0
   20.7124  134.5813   -3.6654 C   0  0  2  0  0  0  0  0  0  0  0  0
   22.0188  133.7953   -3.9053 C   0  0  0  0  0  0  0  0  0  0  0  0
   20.8466  136.1240   -3.9321 C   0  0  2  0  0  0  0  0  0  0  0  0
   21.4594  136.4229   -5.3216 C   0  0  0  0  0  0  0  0  0  0  0  0
   20.5795  137.2149   -6.0928 O   0  0  0  0  0  0  0  0  0  0  0  0
   19.2751  136.6615   -6.1188 C   0  0  1  0  0  0  0  0  0  0  0  0
   18.3742  137.4387   -5.1420 C   0  0  0  0  0  0  0  0  0  0  0  0
   18.9789  138.7672   -4.7618 C   0  0  0  0  0  0  0  0  0  0  0  0
   19.2292  139.7127   -5.7504 C   0  0  0  0  0  0  0  0  0  0  0  0
   19.7875  140.9354   -5.3932 C   0  0  0  0  0  0  0  0  0  0  0  0
   20.0915  141.2096   -4.0645 C   0  0  0  0  0  0  0  0  0  0  0  0
   19.8379  140.2574   -3.0822 C   0  0  0  0  0  0  0  0  0  0  0  0
   19.2799  139.0316   -3.4296 C   0  0  0  0  0  0  0  0  0  0  0  0
   18.7386  136.7704   -7.5212 C   0  0  0  0  0  0  0  0  0  0  0  0
   19.0446  137.7750   -8.2190 O   0  0  0  0  0  0  0  0  0  0  0  0
   17.9158  135.7244   -8.0701 N   0  0  0  0  0  0  0  0  0  0  0  0
   17.3778  135.7276   -9.4352 C   0  0  2  0  0  0  0  0  0  0  0  0
   15.8506  135.4937   -9.4353 C   0  0  0  0  0  0  0  0  0  0  0  0
   15.4539  134.0568   -9.0569 C   0  0  0  0  0  0  0  0  0  0  0  0
   15.3261  133.8081   -7.2882 S   0  0  0  0  0  0  0  0  0  0  0  0
   14.6683  135.2829   -6.5432 C   0  0  0  0  0  0  0  0  0  0  0  0
   14.3993  132.6618   -6.9957 O   0  0  0  0  0  0  0  0  0  0  0  0
   16.6793  133.5213   -6.7001 O   0  0  0  0  0  0  0  0  0  0  0  0
   18.1196  134.7377  -10.2952 C   0  0  0  0  0  0  0  0  0  0  0  0
   17.8447  133.5083  -10.2602 O   0  0  0  0  0  0  0  0  0  0  0  0
   19.1549  135.1809  -11.1083 O   0  5  0  0  0  0  0  0  0  0  0  0
   21.5695  136.8579   -2.8485 N   0  3  0  0  0  0  0  0  0  0  0  0
   22.6828  136.0870   -2.2588 C   0  0  0  0  0  0  0  0  0  0  0  0
   23.0520  136.5339   -0.8154 C   0  0  2  0  0  0  0  0  0  0  0  0
   22.5742  135.5741    0.1931 N   0  3  0  0  0  0  0  0  0  0  0  0
   22.5200  137.9542   -0.5227 C   0  0  0  0  0  0  0  0  0  0  0  0
   23.5034  138.8277    0.6866 S   0  0  0  0  0  0  0  0  0  0  0  0
   19.4093  132.6390   -1.1618 H   0  0  0  0  0  0  0  0  0  0  0  0
   19.0716  132.5362   -2.7561 H   0  0  0  0  0  0  0  0  0  0  0  0
   20.5802  132.2167   -2.2188 H   0  0  0  0  0  0  0  0  0  0  0  0
   20.8329  134.4948   -1.5737 H   0  0  0  0  0  0  0  0  0  0  0  0
   19.3243  134.8143   -2.1111 H   0  0  0  0  0  0  0  0  0  0  0  0
   20.0472  134.2354   -4.3271 H   0  0  0  0  0  0  0  0  0  0  0  0
   22.3756  134.0112   -4.8142 H   0  0  0  0  0  0  0  0  0  0  0  0
   22.6936  134.0510   -3.2130 H   0  0  0  0  0  0  0  0  0  0  0  0
   21.8337  132.8145   -3.8442 H   0  0  0  0  0  0  0  0  0  0  0  0
   19.9160  136.4898   -3.9491 H   0  0  0  0  0  0  0  0  0  0  0  0
   21.6289  135.5604   -5.7985 H   0  0  0  0  0  0  0  0  0  0  0  0
   22.3229  136.9127   -5.2015 H   0  0  0  0  0  0  0  0  0  0  0  0
   19.3131  135.6996   -5.8476 H   0  0  0  0  0  0  0  0  0  0  0  0
   18.2464  136.8922   -4.3143 H   0  0  0  0  0  0  0  0  0  0  0  0
   17.4877  137.5985   -5.5761 H   0  0  0  0  0  0  0  0  0  0  0  0
   19.0105  139.5159   -6.7061 H   0  0  0  0  0  0  0  0  0  0  0  0
   19.9715  141.6219   -6.0968 H   0  0  0  0  0  0  0  0  0  0  0  0
   20.4924  142.0911   -3.8148 H   0  0  0  0  0  0  0  0  0  0  0  0
   20.0568  140.4543   -2.1265 H   0  0  0  0  0  0  0  0  0  0  0  0
   19.0962  138.3449   -2.7263 H   0  0  0  0  0  0  0  0  0  0  0  0
   17.6965  134.9452   -7.4830 H   0  0  0  0  0  0  0  0  0  0  0  0
   17.5406  136.6368   -9.8182 H   0  0  0  0  0  0  0  0  0  0  0  0
   15.4999  135.6888  -10.3512 H   0  0  0  0  0  0  0  0  0  0  0  0
   15.4336  136.1213   -8.7780 H   0  0  0  0  0  0  0  0  0  0  0  0
   16.1447  133.4301   -9.4176 H   0  0  0  0  0  0  0  0  0  0  0  0
   14.5678  133.8510   -9.4723 H   0  0  0  0  0  0  0  0  0  0  0  0
   14.5937  135.1523   -5.5546 H   0  0  0  0  0  0  0  0  0  0  0  0
   15.2780  136.0526   -6.7327 H   0  0  0  0  0  0  0  0  0  0  0  0
   13.7632  135.4733   -6.9235 H   0  0  0  0  0  0  0  0  0  0  0  0
   20.9163  137.0764   -2.1235 H   0  0  0  0  0  0  0  0  0  0  0  0
   21.9384  137.7050   -3.2310 H   0  0  0  0  0  0  0  0  0  0  0  0
   23.4884  136.1992   -2.8405 H   0  0  0  0  0  0  0  0  0  0  0  0
   22.4213  135.1221   -2.2340 H   0  0  0  0  0  0  0  0  0  0  0  0
   24.0496  136.5657   -0.7542 H   0  0  0  0  0  0  0  0  0  0  0  0
   22.4800  136.0363    1.0748 H   0  0  0  0  0  0  0  0  0  0  0  0
   21.6868  135.2090   -0.0884 H   0  0  0  0  0  0  0  0  0  0  0  0
   23.2311  134.8250    0.2780 H   0  0  0  0  0  0  0  0  0  0  0  0
   21.5837  137.8801   -0.1796 H   0  0  0  0  0  0  0  0  0  0  0  0
   22.5223  138.4779   -1.3746 H   0  0  0  0  0  0  0  0  0  0  0  0
   23.0827  139.7138    0.8811 H   0  0  0  0  0  0  0  0  0  0  0  0
  1  2  1  0  0  0  0
  2  3  1  0  0  0  0
  3  4  1  0  0  0  0
  3  5  1  0  0  0  0
  5  6  1  0  0  0  0
  6  7  1  0  0  0  0
  7  8  1  0  0  0  0
  8  9  1  0  0  0  0
  9 10  1  0  0  0  0
 10 11  2  0  0  0  0
 11 12  1  0  0  0  0
 12 13  2  0  0  0  0
 13 14  1  0  0  0  0
 14 15  2  0  0  0  0
  8 16  1  0  0  0  0
 16 17  2  0  0  0  0
 16 18  1  0  0  0  0
 18 19  1  0  0  0  0
 19 20  1  0  0  0  0
 20 21  1  0  0  0  0
 21 22  1  0  0  0  0
 22 23  1  0  0  0  0
 22 24  2  0  0  0  0
 22 25  2  0  0  0  0
 19 26  1  0  0  0  0
 26 27  2  0  0  0  0
 26 28  1  0  0  0  0
  5 29  1  0  0  0  0
 29 30  1  0  0  0  0
 30 31  1  0  0  0  0
 31 32  1  0  0  0  0
 31 33  1  0  0  0  0
 33 34  1  0  0  0  0
 15 10  1  0  0  0  0
  1 35  1  0  0  0  0
  1 36  1  0  0  0  0
  1 37  1  0  0  0  0
  2 38  1  0  0  0  0
  2 39  1  0  0  0  0
  3 40  1  0  0  0  0
  4 41  1  0  0  0  0
  4 42  1  0  0  0  0
  4 43  1  0  0  0  0
  5 44  1  0  0  0  0
  6 45  1  0  0  0  0
  6 46  1  0  0  0  0
  8 47  1  0  0  0  0
  9 48  1  0  0  0  0
  9 49  1  0  0  0  0
 11 50  1  0  0  0  0
 12 51  1  0  0  0  0
 13 52  1  0  0  0  0
 14 53  1  0  0  0  0
 15 54  1  0  0  0  0
 18 55  1  0  0  0  0
 19 56  1  0  0  0  0
 20 57  1  0  0  0  0
 20 58  1  0  0  0  0
 21 59  1  0  0  0  0
 21 60  1  0  0  0  0
 23 61  1  0  0  0  0
 23 62  1  0  0  0  0
 23 63  1  0  0  0  0
 29 64  1  0  0  0  0
 29 65  1  0  0  0  0
 30 66  1  0  0  0  0
 30 67  1  0  0  0  0
 31 68  1  0  0  0  0
 32 69  1  0  0  0  0
 32 70  1  0  0  0  0
 32 71  1  0  0  0  0
 33 72  1  0  0  0  0
 33 73  1  0  0  0  0
 34 74  1  0  0  0  0
M  CHG  3  28  -1  29   1  32   1
M  END
> <BIOSOLVEIT.HYDE_ESTIMATED_AFFINITY_LOWER_BOUNDARY [nM]>
1635491561.217059

> <BIOSOLVEIT.HYDE_ESTIMATED_AFFINITY_UPPER_BOUNDARY [nM]>
162495756398.303314

> <BIOSOLVEIT.HYDE_LIGAND_EFFICIENCY range: ++, +, 0, -, -->
--

> <BIOSOLVEIT.HYDE_LIGAND_LIPOPHILIC_EFFICIENCY range: ++, +, 0, -, -->
--

> <BIOSOLVEIT.INTER_CLASH range: red, yellow, green>
yellow

> <BIOSOLVEIT.INTRA_CLASH range: red, yellow, green>
red

> <BIOSOLVEIT.LOGP>
-1.1671

> <BIOSOLVEIT.MOLECULAR WEIGHT>
518.714

> <BIOSOLVEIT.MOLECULE_CHECKSUM>
Ni45MTk1MTsw

> <BIOSOLVEIT.TORSION_QUALITY range: red, yellow, green, not rotatable>
red

> <BIOSOLVEIT.TPSA>
156.85

$$$$
1JCQ_739_2
foHydescor03192112173D 1   1.00000     0.00000     0
Hydescorer 1.1.0 fol007
 74 74  0  0  0  0            999 V2000
   19.7703  133.3201   -3.3935 C   0  0  0  0  0  0  0  0  0  0  0  0
   21.1728  133.5331   -2.8188 C   0  0  0  0  0  0  0  0  0  0  0  0
   22.0790  134.4051   -3.7288 C   0  0  2  0  0  0  0  0  0  0  0  0
   23.5324  134.3863   -3.2100 C   0  0  0  0  0  0  0  0  0  0  0  0
   21.5084  135.8518   -3.9537 C   0  0  2  0  0  0  0  0  0  0  0  0
   21.7333  136.3469   -5.4028 C   0  0  0  0  0  0  0  0  0  0  0  0
   20.8695  137.4251   -5.6993 O   0  0  0  0  0  0  0  0  0  0  0  0
   19.5481  136.9755   -5.9445 C   0  0  1  0  0  0  0  0  0  0  0  0
   18.5576  137.8641   -5.1704 C   0  0  0  0  0  0  0  0  0  0  0  0
   19.2321  139.0878   -4.6024 C   0  0  0  0  0  0  0  0  0  0  0  0
   19.6746  140.0865   -5.4630 C   0  0  0  0  0  0  0  0  0  0  0  0
   20.2962  141.2120   -4.9326 C   0  0  0  0  0  0  0  0  0  0  0  0
   20.4730  141.3376   -3.5593 C   0  0  0  0  0  0  0  0  0  0  0  0
   20.0273  140.3331   -2.7059 C   0  0  0  0  0  0  0  0  0  0  0  0
   19.4046  139.2038   -3.2268 C   0  0  0  0  0  0  0  0  0  0  0  0
   19.2810  137.0638   -7.4234 C   0  0  0  0  0  0  0  0  0  0  0  0
   19.9732  137.8491   -8.1263 O   0  0  0  0  0  0  0  0  0  0  0  0
   18.2723  136.2367   -8.0326 N   0  0  0  0  0  0  0  0  0  0  0  0
   17.9666  136.2292   -9.4677 C   0  0  2  0  0  0  0  0  0  0  0  0
   16.6457  136.9742   -9.7622 C   0  0  0  0  0  0  0  0  0  0  0  0
   15.4000  136.2330   -9.2484 C   0  0  0  0  0  0  0  0  0  0  0  0
   15.1858  136.3682   -7.4757 S   0  0  0  0  0  0  0  0  0  0  0  0
   15.6993  137.9888   -6.9535 C   0  0  0  0  0  0  0  0  0  0  0  0
   13.7389  136.1785   -7.1165 O   0  0  0  0  0  0  0  0  0  0  0  0
   16.0178  135.3362   -6.7672 O   0  0  0  0  0  0  0  0  0  0  0  0
   17.9724  134.8196   -9.9992 C   0  0  0  0  0  0  0  0  0  0  0  0
   17.2057  133.9398   -9.5237 O   0  0  0  0  0  0  0  0  0  0  0  0
   18.8696  134.4715  -11.0009 O   0  5  0  0  0  0  0  0  0  0  0  0
   21.9984  136.8504   -2.9545 N   0  3  0  0  0  0  0  0  0  0  0  0
   21.4971  136.6069   -1.5866 C   0  0  0  0  0  0  0  0  0  0  0  0
   22.6174  136.5934   -0.5077 C   0  0  2  0  0  0  0  0  0  0  0  0
   22.5814  135.3648    0.3021 N   0  3  0  0  0  0  0  0  0  0  0  0
   22.5378  137.8489    0.3885 C   0  0  0  0  0  0  0  0  0  0  0  0
   22.8074  139.3657   -0.5168 S   0  0  0  0  0  0  0  0  0  0  0  0
   19.2355  132.7538   -2.7663 H   0  0  0  0  0  0  0  0  0  0  0  0
   19.3197  134.2053   -3.5099 H   0  0  0  0  0  0  0  0  0  0  0  0
   19.8392  132.8621   -4.2797 H   0  0  0  0  0  0  0  0  0  0  0  0
   21.6068  132.6401   -2.6998 H   0  0  0  0  0  0  0  0  0  0  0  0
   21.0873  133.9832   -1.9299 H   0  0  0  0  0  0  0  0  0  0  0  0
   22.0916  133.9622   -4.6252 H   0  0  0  0  0  0  0  0  0  0  0  0
   24.1057  134.9509   -3.8037 H   0  0  0  0  0  0  0  0  0  0  0  0
   23.5586  134.7490   -2.2785 H   0  0  0  0  0  0  0  0  0  0  0  0
   23.8748  133.4466   -3.2116 H   0  0  0  0  0  0  0  0  0  0  0  0
   20.5185  135.7880   -3.8274 H   0  0  0  0  0  0  0  0  0  0  0  0
   21.5523  135.5964   -6.0385 H   0  0  0  0  0  0  0  0  0  0  0  0
   22.6815  136.6479   -5.5039 H   0  0  0  0  0  0  0  0  0  0  0  0
   19.4548  136.0268   -5.6425 H   0  0  0  0  0  0  0  0  0  0  0  0
   18.1641  137.3331   -4.4199 H   0  0  0  0  0  0  0  0  0  0  0  0
   17.8292  138.1543   -5.7911 H   0  0  0  0  0  0  0  0  0  0  0  0
   19.5474  139.9967   -6.4508 H   0  0  0  0  0  0  0  0  0  0  0  0
   20.6181  141.9357   -5.5430 H   0  0  0  0  0  0  0  0  0  0  0  0
   20.9205  142.1497   -3.1850 H   0  0  0  0  0  0  0  0  0  0  0  0
   20.1547  140.4232   -1.7181 H   0  0  0  0  0  0  0  0  0  0  0  0
   19.0829  138.4799   -2.6164 H   0  0  0  0  0  0  0  0  0  0  0  0
   17.7458  135.6278   -7.4392 H   0  0  0  0  0  0  0  0  0  0  0  0
   18.6997  136.7263   -9.9317 H   0  0  0  0  0  0  0  0  0  0  0  0
   16.5604  137.0895  -10.7519 H   0  0  0  0  0  0  0  0  0  0  0  0
   16.6836  137.8724   -9.3240 H   0  0  0  0  0  0  0  0  0  0  0  0
   15.4844  135.2654   -9.4863 H   0  0  0  0  0  0  0  0  0  0  0  0
   14.5930  136.6173   -9.6970 H   0  0  0  0  0  0  0  0  0  0  0  0
   15.5828  138.0726   -5.9638 H   0  0  0  0  0  0  0  0  0  0  0  0
   16.6617  138.1255   -7.1885 H   0  0  0  0  0  0  0  0  0  0  0  0
   15.1423  138.6797   -7.4143 H   0  0  0  0  0  0  0  0  0  0  0  0
   21.7010  137.7603   -3.2438 H   0  0  0  0  0  0  0  0  0  0  0  0
   22.9978  136.8164   -2.9365 H   0  0  0  0  0  0  0  0  0  0  0  0
   21.0336  135.7209   -1.5726 H   0  0  0  0  0  0  0  0  0  0  0  0
   20.8443  137.3284   -1.3559 H   0  0  0  0  0  0  0  0  0  0  0  0
   23.4965  136.6166   -0.9838 H   0  0  0  0  0  0  0  0  0  0  0  0
   22.0224  135.5189    1.1168 H   0  0  0  0  0  0  0  0  0  0  0  0
   22.1864  134.6214   -0.2375 H   0  0  0  0  0  0  0  0  0  0  0  0
   23.5110  135.1196    0.5772 H   0  0  0  0  0  0  0  0  0  0  0  0
   23.2334  137.7758    1.1032 H   0  0  0  0  0  0  0  0  0  0  0  0
   21.6310  137.8846    0.8085 H   0  0  0  0  0  0  0  0  0  0  0  0
   22.7321  140.1439    0.1066 H   0  0  0  0  0  0  0  0  0  0  0  0
  1  2  1  0  0  0  0
  2  3  1  0  0  0  0
  3  4  1  0  0  0  0
  3  5  1  0  0  0  0
  5  6  1  0  0  0  0
  6  7  1  0  0  0  0
  7  8  1  0  0  0  0
  8  9  1  0  0  0  0
  9 10  1  0  0  0  0
 10 11  2  0  0  0  0
 11 12  1  0  0  0  0
 12 13  2  0  0  0  0
 13 14  1  0  0  0  0
 14 15  2  0  0  0  0
  8 16  1  0  0  0  0
 16 17  2  0  0  0  0
 16 18  1  0  0  0  0
 18 19  1  0  0  0  0
 19 20  1  0  0  0  0
 20 21  1  0  0  0  0
 21 22  1  0  0  0  0
 22 23  1  0  0  0  0
 22 24  2  0  0  0  0
 22 25  2  0  0  0  0
 19 26  1  0  0  0  0
 26 27  2  0  0  0  0
 26 28  1  0  0  0  0
  5 29  1  0  0  0  0
 29 30  1  0  0  0  0
 30 31  1  0  0  0  0
 31 32  1  0  0  0  0
 31 33  1  0  0  0  0
 33 34  1  0  0  0  0
 15 10  1  0  0  0  0
  1 35  1  0  0  0  0
  1 36  1  0  0  0  0
  1 37  1  0  0  0  0
  2 38  1  0  0  0  0
  2 39  1  0  0  0  0
  3 40  1  0  0  0  0
  4 41  1  0  0  0  0
  4 42  1  0  0  0  0
  4 43  1  0  0  0  0
  5 44  1  0  0  0  0
  6 45  1  0  0  0  0
  6 46  1  0  0  0  0
  8 47  1  0  0  0  0
  9 48  1  0  0  0  0
  9 49  1  0  0  0  0
 11 50  1  0  0  0  0
 12 51  1  0  0  0  0
 13 52  1  0  0  0  0
 14 53  1  0  0  0  0
 15 54  1  0  0  0  0
 18 55  1  0  0  0  0
 19 56  1  0  0  0  0
 20 57  1  0  0  0  0
 20 58  1  0  0  0  0
 21 59  1  0  0  0  0
 21 60  1  0  0  0  0
 23 61  1  0  0  0  0
 23 62  1  0  0  0  0
 23 63  1  0  0  0  0
 29 64  1  0  0  0  0
 29 65  1  0  0  0  0
 30 66  1  0  0  0  0
 30 67  1  0  0  0  0
 31 68  1  0  0  0  0
 32 69  1  0  0  0  0
 32 70  1  0  0  0  0
 32 71  1  0  0  0  0
 33 72  1  0  0  0  0
 33 73  1  0  0  0  0
 34 74  1  0  0  0  0
M  CHG  3  28  -1  29   1  32   1
M  END
> <BIOSOLVEIT.HYDE_ESTIMATED_AFFINITY_LOWER_BOUNDARY [nM]>
1471218946483.026123

> <BIOSOLVEIT.HYDE_ESTIMATED_AFFINITY_UPPER_BOUNDARY [nM]>
146174300867912.437500

> <BIOSOLVEIT.HYDE_LIGAND_EFFICIENCY range: ++, +, 0, -, -->
--

> <BIOSOLVEIT.HYDE_LIGAND_LIPOPHILIC_EFFICIENCY range: ++, +, 0, -, -->
--

> <BIOSOLVEIT.INTER_CLASH range: red, yellow, green>
green

> <BIOSOLVEIT.INTRA_CLASH range: red, yellow, green>
green

> <BIOSOLVEIT.LOGP>
-1.1671

> <BIOSOLVEIT.MOLECULAR WEIGHT>
518.714

> <BIOSOLVEIT.MOLECULE_CHECKSUM>
MjMuNzgxMTsw

> <BIOSOLVEIT.TORSION_QUALITY range: red, yellow, green, not rotatable>
red

> <BIOSOLVEIT.TPSA>
156.85

$$$$
1JCQ_739_3
foHydescor03192112173D 1   1.00000     0.00000     0
Hydescorer 1.1.0 fol007
 74 74  0  0  0  0            999 V2000
   19.4912  132.6238   -2.3991 C   0  0  0  0  0  0  0  0  0  0  0  0
   20.2170  133.9632   -2.2513 C   0  0  0  0  0  0  0  0  0  0  0  0
   20.9976  134.3781   -3.5273 C   0  0  2  0  0  0  0  0  0  0  0  0
   22.4393  133.8299   -3.4729 C   0  0  0  0  0  0  0  0  0  0  0  0
   20.9199  135.9205   -3.8173 C   0  0  2  0  0  0  0  0  0  0  0  0
   21.5409  136.2869   -5.1868 C   0  0  0  0  0  0  0  0  0  0  0  0
   20.8462  137.3680   -5.7742 O   0  0  0  0  0  0  0  0  0  0  0  0
   19.4957  137.0306   -6.0395 C   0  0  1  0  0  0  0  0  0  0  0  0
   18.5722  138.0461   -5.3425 C   0  0  0  0  0  0  0  0  0  0  0  0
   17.9636  137.4759   -4.0857 C   0  0  0  0  0  0  0  0  0  0  0  0
   17.8974  138.2618   -2.9403 C   0  0  0  0  0  0  0  0  0  0  0  0
   17.3353  137.7297   -1.7847 C   0  0  0  0  0  0  0  0  0  0  0  0
   16.8454  136.4287   -1.7744 C   0  0  0  0  0  0  0  0  0  0  0  0
   16.9162  135.6496   -2.9250 C   0  0  0  0  0  0  0  0  0  0  0  0
   17.4765  136.1728   -4.0855 C   0  0  0  0  0  0  0  0  0  0  0  0
   19.2789  137.0664   -7.5290 C   0  0  0  0  0  0  0  0  0  0  0  0
   19.9367  137.8863   -8.2253 O   0  0  0  0  0  0  0  0  0  0  0  0
   18.3585  136.1526   -8.1537 N   0  0  0  0  0  0  0  0  0  0  0  0
   18.1090  136.0909   -9.5983 C   0  0  2  0  0  0  0  0  0  0  0  0
   16.9074  136.9766   -9.9966 C   0  0  0  0  0  0  0  0  0  0  0  0
   15.5529  136.4073   -9.5422 C   0  0  0  0  0  0  0  0  0  0  0  0
   15.2779  136.5757   -7.7808 S   0  0  0  0  0  0  0  0  0  0  0  0
   15.6225  138.2528   -7.2997 C   0  0  0  0  0  0  0  0  0  0  0  0
   13.8457  136.2610   -7.4515 O   0  0  0  0  0  0  0  0  0  0  0  0
   16.1829  135.6491   -7.0180 O   0  0  0  0  0  0  0  0  0  0  0  0
   17.9524  134.6604  -10.0443 C   0  0  0  0  0  0  0  0  0  0  0  0
   17.0224  133.9361   -9.5988 O   0  0  0  0  0  0  0  0  0  0  0  0
   18.8754  134.1161  -10.9283 O   0  5  0  0  0  0  0  0  0  0  0  0
   21.4841  136.7648   -2.7197 N   0  3  0  0  0  0  0  0  0  0  0  0
   22.1739  135.9833   -1.6732 C   0  0  0  0  0  0  0  0  0  0  0  0
   22.8200  136.8633   -0.5652 C   0  0  2  0  0  0  0  0  0  0  0  0
   23.0813  136.0930    0.6614 N   0  3  0  0  0  0  0  0  0  0  0  0
   21.9486  138.1029   -0.2647 C   0  0  0  0  0  0  0  0  0  0  0  0
   22.3880  139.5181   -1.2629 S   0  0  0  0  0  0  0  0  0  0  0  0
   19.0087  132.4106   -1.5496 H   0  0  0  0  0  0  0  0  0  0  0  0
   18.8338  132.6821   -3.1503 H   0  0  0  0  0  0  0  0  0  0  0  0
   20.1571  131.9036   -2.5940 H   0  0  0  0  0  0  0  0  0  0  0  0
   20.8637  133.8924   -1.4918 H   0  0  0  0  0  0  0  0  0  0  0  0
   19.5404  134.6709   -2.0482 H   0  0  0  0  0  0  0  0  0  0  0  0
   20.5489  133.9217   -4.2958 H   0  0  0  0  0  0  0  0  0  0  0  0
   22.9314  134.1034   -4.2993 H   0  0  0  0  0  0  0  0  0  0  0  0
   22.9061  134.1990   -2.6694 H   0  0  0  0  0  0  0  0  0  0  0  0
   22.4144  132.8319   -3.4147 H   0  0  0  0  0  0  0  0  0  0  0  0
   19.9480  136.1481   -3.8777 H   0  0  0  0  0  0  0  0  0  0  0  0
   21.4890  135.4940   -5.7940 H   0  0  0  0  0  0  0  0  0  0  0  0
   22.4983  136.5440   -5.0553 H   0  0  0  0  0  0  0  0  0  0  0  0
   19.3052  136.1115   -5.6946 H   0  0  0  0  0  0  0  0  0  0  0  0
   17.8377  138.3011   -5.9714 H   0  0  0  0  0  0  0  0  0  0  0  0
   19.1046  138.8585   -5.1049 H   0  0  0  0  0  0  0  0  0  0  0  0
   18.2495  139.1978   -2.9475 H   0  0  0  0  0  0  0  0  0  0  0  0
   17.2832  138.2867   -0.9558 H   0  0  0  0  0  0  0  0  0  0  0  0
   16.4422  136.0528   -0.9400 H   0  0  0  0  0  0  0  0  0  0  0  0
   16.5642  134.7136   -2.9176 H   0  0  0  0  0  0  0  0  0  0  0  0
   17.5289  135.6158   -4.9144 H   0  0  0  0  0  0  0  0  0  0  0  0
   17.8567  135.5188   -7.5651 H   0  0  0  0  0  0  0  0  0  0  0  0
   18.9172  136.4601  -10.0570 H   0  0  0  0  0  0  0  0  0  0  0  0
   16.8957  137.0660  -10.9926 H   0  0  0  0  0  0  0  0  0  0  0  0
   17.0273  137.8787   -9.5823 H   0  0  0  0  0  0  0  0  0  0  0  0
   15.5203  135.4361   -9.7783 H   0  0  0  0  0  0  0  0  0  0  0  0
   14.8248  136.8927  -10.0261 H   0  0  0  0  0  0  0  0  0  0  0  0
   15.4712  138.3554   -6.3166 H   0  0  0  0  0  0  0  0  0  0  0  0
   16.5740  138.4725   -7.5153 H   0  0  0  0  0  0  0  0  0  0  0  0
   15.0162  138.8735   -7.7968 H   0  0  0  0  0  0  0  0  0  0  0  0
   20.7354  137.2729   -2.2940 H   0  0  0  0  0  0  0  0  0  0  0  0
   22.1385  137.4071   -3.1185 H   0  0  0  0  0  0  0  0  0  0  0  0
   22.8937  135.4408   -2.1063 H   0  0  0  0  0  0  0  0  0  0  0  0
   21.5084  135.3724   -1.2442 H   0  0  0  0  0  0  0  0  0  0  0  0
   23.6999  137.1885   -0.9117 H   0  0  0  0  0  0  0  0  0  0  0  0
   23.6693  136.6254    1.2704 H   0  0  0  0  0  0  0  0  0  0  0  0
   22.2158  135.8959    1.1220 H   0  0  0  0  0  0  0  0  0  0  0  0
   23.5365  135.2344    0.4253 H   0  0  0  0  0  0  0  0  0  0  0  0
   22.0596  138.3451    0.6992 H   0  0  0  0  0  0  0  0  0  0  0  0
   20.9921  137.8715   -0.4423 H   0  0  0  0  0  0  0  0  0  0  0  0
   23.1551  139.9997   -0.8391 H   0  0  0  0  0  0  0  0  0  0  0  0
  1  2  1  0  0  0  0
  2  3  1  0  0  0  0
  3  4  1  0  0  0  0
  3  5  1  0  0  0  0
  5  6  1  0  0  0  0
  6  7  1  0  0  0  0
  7  8  1  0  0  0  0
  8  9  1  0  0  0  0
  9 10  1  0  0  0  0
 10 11  2  0  0  0  0
 11 12  1  0  0  0  0
 12 13  2  0  0  0  0
 13 14  1  0  0  0  0
 14 15  2  0  0  0  0
  8 16  1  0  0  0  0
 16 17  2  0  0  0  0
 16 18  1  0  0  0  0
 18 19  1  0  0  0  0
 19 20  1  0  0  0  0
 20 21  1  0  0  0  0
 21 22  1  0  0  0  0
 22 23  1  0  0  0  0
 22 24  2  0  0  0  0
 22 25  2  0  0  0  0
 19 26  1  0  0  0  0
 26 27  2  0  0  0  0
 26 28  1  0  0  0  0
  5 29  1  0  0  0  0
 29 30  1  0  0  0  0
 30 31  1  0  0  0  0
 31 32  1  0  0  0  0
 31 33  1  0  0  0  0
 33 34  1  0  0  0  0
 15 10  1  0  0  0  0
  1 35  1  0  0  0  0
  1 36  1  0  0  0  0
  1 37  1  0  0  0  0
  2 38  1  0  0  0  0
  2 39  1  0  0  0  0
  3 40  1  0  0  0  0
  4 41  1  0  0  0  0
  4 42  1  0  0  0  0
  4 43  1  0  0  0  0
  5 44  1  0  0  0  0
  6 45  1  0  0  0  0
  6 46  1  0  0  0  0
  8 47  1  0  0  0  0
  9 48  1  0  0  0  0
  9 49  1  0  0  0  0
 11 50  1  0  0  0  0
 12 51  1  0  0  0  0
 13 52  1  0  0  0  0
 14 53  1  0  0  0  0
 15 54  1  0  0  0  0
 18 55  1  0  0  0  0
 19 56  1  0  0  0  0
 20 57  1  0  0  0  0
 20 58  1  0  0  0  0
 21 59  1  0  0  0  0
 21 60  1  0  0  0  0
 23 61  1  0  0  0  0
 23 62  1  0  0  0  0
 23 63  1  0  0  0  0
 29 64  1  0  0  0  0
 29 65  1  0  0  0  0
 30 66  1  0  0  0  0
 30 67  1  0  0  0  0
 31 68  1  0  0  0  0
 32 69  1  0  0  0  0
 32 70  1  0  0  0  0
 32 71  1  0  0  0  0
 33 72  1  0  0  0  0
 33 73  1  0  0  0  0
 34 74  1  0  0  0  0
M  CHG  3  28  -1  29   1  32   1
M  END
> <BIOSOLVEIT.HYDE_ESTIMATED_AFFINITY_LOWER_BOUNDARY [nM]>
4531695440.936247

> <BIOSOLVEIT.HYDE_ESTIMATED_AFFINITY_UPPER_BOUNDARY [nM]>
450250735560.932251

> <BIOSOLVEIT.HYDE_LIGAND_EFFICIENCY range: ++, +, 0, -, -->
--

> <BIOSOLVEIT.HYDE_LIGAND_LIPOPHILIC_EFFICIENCY range: ++, +, 0, -, -->
--

> <BIOSOLVEIT.INTER_CLASH range: red, yellow, green>
green

> <BIOSOLVEIT.INTRA_CLASH range: red, yellow, green>
red

> <BIOSOLVEIT.LOGP>
-1.1671

> <BIOSOLVEIT.MOLECULAR WEIGHT>
518.714

> <BIOSOLVEIT.MOLECULE_CHECKSUM>
OS40NDU5NDsw

> <BIOSOLVEIT.TORSION_QUALITY range: red, yellow, green, not rotatable>
red

> <BIOSOLVEIT.TPSA>
156.85

$$$$
1SA4_JAN_1
foHydescor03192112173D 1   1.00000     0.00000     0
Hydescorer 1.1.0 fol007
 56 60  0  0  0  0            999 V2000
   16.5238  135.7877    0.6637 C   0  0  0  0  0  0  0  0  0  0  0  0
   17.4215  134.8771   -0.0624 N   0  0  0  0  0  0  0  0  0  0  0  0
   18.5580  134.3176    0.4444 C   0  0  0  0  0  0  0  0  0  0  0  0
   19.0879  133.5650   -0.4947 N   0  0  0  0  0  0  0  0  0  0  0  0
   18.3022  133.6321   -1.6104 C   0  0  0  0  0  0  0  0  0  0  0  0
   17.2491  134.4583   -1.3462 C   0  0  0  0  0  0  0  0  0  0  0  0
   16.1023  134.8304   -2.3041 C   0  0  2  0  0  0  0  0  0  0  0  0
   15.2803  135.8876   -1.6622 N   0  0  0  0  0  0  0  0  0  0  0  0
   15.2323  133.5780   -2.5641 C   0  0  0  0  0  0  0  0  0  0  0  0
   15.8121  132.3161   -2.4764 C   0  0  0  0  0  0  0  0  0  0  0  0
   15.0433  131.1798   -2.7062 C   0  0  0  0  0  0  0  0  0  0  0  0
   13.6973  131.3251   -3.0232 C   0  0  0  0  0  0  0  0  0  0  0  0
   12.6997  129.8810   -3.3205 Cl  0  0  0  0  0  0  0  0  0  0  0  0
   13.1161  132.5853   -3.1109 C   0  0  0  0  0  0  0  0  0  0  0  0
   13.8858  133.7209   -2.8809 C   0  0  0  0  0  0  0  0  0  0  0  0
   16.6373  135.3536   -3.6210 C   0  0  0  0  0  0  0  0  0  0  0  0
   15.8056  135.3960   -4.7315 C   0  0  0  0  0  0  0  0  0  0  0  0
   16.3422  135.8843   -5.9154 C   0  0  0  0  0  0  0  0  0  0  0  0
   17.6631  136.3150   -5.9874 C   0  0  0  0  0  0  0  0  0  0  0  0
   18.4657  136.2578   -4.8566 C   0  0  0  0  0  0  0  0  0  0  0  0
   17.9583  135.7737   -3.6563 C   0  0  0  0  0  0  0  0  0  0  0  0
   19.8473  136.7014   -4.9348 C   0  0  0  0  0  0  0  0  0  0  0  0
   20.7256  136.6529   -3.7803 C   0  0  0  0  0  0  0  0  0  0  0  0
   20.5057  137.5241   -2.7185 C   0  0  0  0  0  0  0  0  0  0  0  0
   21.3523  137.4710   -1.6157 C   0  0  0  0  0  0  0  0  0  0  0  0
   22.4055  136.5639   -1.5661 C   0  0  0  0  0  0  0  0  0  0  0  0
   22.6063  135.7023   -2.6396 C   0  0  0  0  0  0  0  0  0  0  0  0
   23.9493  134.5350   -2.5962 Cl  0  0  0  0  0  0  0  0  0  0  0  0
   21.7728  135.7382   -3.7527 C   0  0  0  0  0  0  0  0  0  0  0  0
   20.3758  137.1666   -6.0522 C   0  0  0  0  0  0  0  0  0  0  0  0
   19.5511  137.2376   -7.2431 C   0  0  0  0  0  0  0  0  0  0  0  0
   20.0392  137.6681   -8.2757 O   0  0  0  0  0  0  0  0  0  0  0  0
   18.2184  136.8095   -7.1746 N   0  0  0  0  0  0  0  0  0  0  0  0
   17.4260  136.8990   -8.4126 C   0  0  0  0  0  0  0  0  0  0  0  0
   15.7659  136.0536    0.0680 H   0  0  0  0  0  0  0  0  0  0  0  0
   16.1643  135.3252    1.4742 H   0  0  0  0  0  0  0  0  0  0  0  0
   17.0307  136.6033    0.9425 H   0  0  0  0  0  0  0  0  0  0  0  0
   18.9227  134.4552    1.3653 H   0  0  0  0  0  0  0  0  0  0  0  0
   18.4703  133.1565   -2.4739 H   0  0  0  0  0  0  0  0  0  0  0  0
   14.8337  136.4373   -2.3682 H   0  0  0  0  0  0  0  0  0  0  0  0
   14.5857  135.4631   -1.0813 H   0  0  0  0  0  0  0  0  0  0  0  0
   16.7815  132.2260   -2.2482 H   0  0  0  0  0  0  0  0  0  0  0  0
   15.4535  130.2699   -2.6442 H   0  0  0  0  0  0  0  0  0  0  0  0
   12.1466  132.6751   -3.3391 H   0  0  0  0  0  0  0  0  0  0  0  0
   13.4750  134.6306   -2.9426 H   0  0  0  0  0  0  0  0  0  0  0  0
   14.8560  135.0865   -4.6808 H   0  0  0  0  0  0  0  0  0  0  0  0
   15.7676  135.9273   -6.7327 H   0  0  0  0  0  0  0  0  0  0  0  0
   18.5319  135.7296   -2.8383 H   0  0  0  0  0  0  0  0  0  0  0  0
   19.7504  138.1788   -2.7473 H   0  0  0  0  0  0  0  0  0  0  0  0
   21.2015  138.0938   -0.8479 H   0  0  0  0  0  0  0  0  0  0  0  0
   23.0097  136.5316   -0.7700 H   0  0  0  0  0  0  0  0  0  0  0  0
   21.9243  135.1161   -4.5208 H   0  0  0  0  0  0  0  0  0  0  0  0
   21.3298  137.4652   -6.0768 H   0  0  0  0  0  0  0  0  0  0  0  0
   16.4987  136.5673   -8.2395 H   0  0  0  0  0  0  0  0  0  0  0  0
   17.3884  137.8510   -8.7162 H   0  0  0  0  0  0  0  0  0  0  0  0
   17.8530  136.3393   -9.1228 H   0  0  0  0  0  0  0  0  0  0  0  0
  1  2  1  0  0  0  0
  2  3  1  0  0  0  0
  3  4  2  0  0  0  0
  4  5  1  0  0  0  0
  5  6  2  0  0  0  0
  6  7  1  0  0  0  0
  7  8  1  0  0  0  0
  7  9  1  0  0  0  0
  9 10  2  0  0  0  0
 10 11  1  0  0  0  0
 11 12  2  0  0  0  0
 12 13  1  0  0  0  0
 12 14  1  0  0  0  0
 14 15  2  0  0  0  0
  7 16  1  0  0  0  0
 16 17  2  0  0  0  0
 17 18  1  0  0  0  0
 18 19  2  0  0  0  0
 19 20  1  0  0  0  0
 20 21  2  0  0  0  0
 20 22  1  0  0  0  0
 22 23  1  0  0  0  0
 23 24  2  0  0  0  0
 24 25  1  0  0  0  0
 25 26  2  0  0  0  0
 26 27  1  0  0  0  0
 27 28  1  0  0  0  0
 27 29  2  0  0  0  0
 22 30  2  0  0  0  0
 30 31  1  0  0  0  0
 31 32  2  0  0  0  0
 31 33  1  0  0  0  0
 33 34  1  0  0  0  0
  6  2  1  0  0  0  0
 15  9  1  0  0  0  0
 21 16  1  0  0  0  0
 29 23  1  0  0  0  0
 33 19  1  0  0  0  0
  1 35  1  0  0  0  0
  1 36  1  0  0  0  0
  1 37  1  0  0  0  0
  3 38  1  0  0  0  0
  5 39  1  0  0  0  0
 34 56  1  0  0  0  0
  8 40  1  0  0  0  0
  8 41  1  0  0  0  0
 10 42  1  0  0  0  0
 11 43  1  0  0  0  0
 14 44  1  0  0  0  0
 15 45  1  0  0  0  0
 17 46  1  0  0  0  0
 18 47  1  0  0  0  0
 21 48  1  0  0  0  0
 24 49  1  0  0  0  0
 25 50  1  0  0  0  0
 26 51  1  0  0  0  0
 29 52  1  0  0  0  0
 30 53  1  0  0  0  0
 34 54  1  0  0  0  0
 34 55  1  0  0  0  0
M  END
> <BIOSOLVEIT.HYDE_ESTIMATED_AFFINITY_LOWER_BOUNDARY [nM]>
51735.324602

> <BIOSOLVEIT.HYDE_ESTIMATED_AFFINITY_UPPER_BOUNDARY [nM]>
5140210.382684

> <BIOSOLVEIT.HYDE_LIGAND_EFFICIENCY range: ++, +, 0, -, -->
--

> <BIOSOLVEIT.HYDE_LIGAND_LIPOPHILIC_EFFICIENCY range: ++, +, 0, -, -->
--

> <BIOSOLVEIT.INTER_CLASH range: red, yellow, green>
green

> <BIOSOLVEIT.INTRA_CLASH range: red, yellow, green>
red

> <BIOSOLVEIT.LOGP>
5.3856

> <BIOSOLVEIT.MOLECULAR WEIGHT>
489.404

> <BIOSOLVEIT.MOLECULE_CHECKSUM>
LTE4Ljc2NTc7MC41NTE5MzQ=

> <BIOSOLVEIT.TORSION_QUALITY range: red, yellow, green, not rotatable>
green

> <BIOSOLVEIT.TPSA>
64.15

$$$$
1SA4_JAN_2
foHydescor03192112173D 1   1.00000     0.00000     0
Hydescorer 1.1.0 fol007
 56 60  0  0  0  0            999 V2000
   16.5502  135.7943    0.6810 C   0  0  0  0  0  0  0  0  0  0  0  0
   17.4416  134.8806   -0.0487 N   0  0  0  0  0  0  0  0  0  0  0  0
   18.5777  134.3163    0.4537 C   0  0  0  0  0  0  0  0  0  0  0  0
   19.1011  133.5621   -0.4876 N   0  0  0  0  0  0  0  0  0  0  0  0
   18.3116  133.6326   -1.6004 C   0  0  0  0  0  0  0  0  0  0  0  0
   17.2628  134.4628   -1.3320 C   0  0  0  0  0  0  0  0  0  0  0  0
   16.1139  134.8398   -2.2856 C   0  0  2  0  0  0  0  0  0  0  0  0
   15.2925  135.8928   -1.6360 N   0  0  0  0  0  0  0  0  0  0  0  0
   15.2441  133.5885   -2.5511 C   0  0  0  0  0  0  0  0  0  0  0  0
   15.8239  132.3263   -2.4682 C   0  0  0  0  0  0  0  0  0  0  0  0
   15.0553  131.1909   -2.7032 C   0  0  0  0  0  0  0  0  0  0  0  0
   13.7094  131.3375   -3.0202 C   0  0  0  0  0  0  0  0  0  0  0  0
   12.7120  129.8946   -3.3239 Cl  0  0  0  0  0  0  0  0  0  0  0  0
   13.1282  132.5980   -3.1033 C   0  0  0  0  0  0  0  0  0  0  0  0
   13.8977  133.7326   -2.8681 C   0  0  0  0  0  0  0  0  0  0  0  0
   16.6461  135.3709   -3.6005 C   0  0  0  0  0  0  0  0  0  0  0  0
   15.8044  135.4454   -4.7017 C   0  0  0  0  0  0  0  0  0  0  0  0
   16.3388  135.9398   -5.8841 C   0  0  0  0  0  0  0  0  0  0  0  0
   17.6673  136.3454   -5.9635 C   0  0  0  0  0  0  0  0  0  0  0  0
   18.4797  136.2566   -4.8418 C   0  0  0  0  0  0  0  0  0  0  0  0
   17.9747  135.7657   -3.6433 C   0  0  0  0  0  0  0  0  0  0  0  0
   19.8690  136.6741   -4.9279 C   0  0  0  0  0  0  0  0  0  0  0  0
   20.7575  136.5921   -3.7831 C   0  0  0  0  0  0  0  0  0  0  0  0
   21.6590  135.5368   -3.6931 C   0  0  0  0  0  0  0  0  0  0  0  0
   22.5070  135.4657   -2.5923 C   0  0  0  0  0  0  0  0  0  0  0  0
   22.4615  136.4305   -1.5916 C   0  0  0  0  0  0  0  0  0  0  0  0
   21.5519  137.4770   -1.7026 C   0  0  0  0  0  0  0  0  0  0  0  0
   21.4771  138.7212   -0.4320 Cl  0  0  0  0  0  0  0  0  0  0  0  0
   20.6941  137.5678   -2.7940 C   0  0  0  0  0  0  0  0  0  0  0  0
   20.3955  137.1445   -6.0440 C   0  0  0  0  0  0  0  0  0  0  0  0
   19.5607  137.2485   -7.2254 C   0  0  0  0  0  0  0  0  0  0  0  0
   20.0469  137.6839   -8.2567 O   0  0  0  0  0  0  0  0  0  0  0  0
   18.2205  136.8457   -7.1493 N   0  0  0  0  0  0  0  0  0  0  0  0
   17.4178  136.9681   -8.3778 C   0  0  0  0  0  0  0  0  0  0  0  0
   15.7911  136.0637    0.0883 H   0  0  0  0  0  0  0  0  0  0  0  0
   16.1919  135.3330    1.4926 H   0  0  0  0  0  0  0  0  0  0  0  0
   17.0614  136.6079    0.9583 H   0  0  0  0  0  0  0  0  0  0  0  0
   18.9463  134.4520    1.3733 H   0  0  0  0  0  0  0  0  0  0  0  0
   18.4748  133.1567   -2.4646 H   0  0  0  0  0  0  0  0  0  0  0  0
   14.8417  136.4443   -2.3379 H   0  0  0  0  0  0  0  0  0  0  0  0
   14.6014  135.4646   -1.0537 H   0  0  0  0  0  0  0  0  0  0  0  0
   16.7932  132.2353   -2.2397 H   0  0  0  0  0  0  0  0  0  0  0  0
   15.4655  130.2808   -2.6448 H   0  0  0  0  0  0  0  0  0  0  0  0
   12.1589  132.6887   -3.3316 H   0  0  0  0  0  0  0  0  0  0  0  0
   13.4870  134.6426   -2.9263 H   0  0  0  0  0  0  0  0  0  0  0  0
   14.8495  135.1540   -4.6457 H   0  0  0  0  0  0  0  0  0  0  0  0
   15.7571  136.0057   -6.6948 H   0  0  0  0  0  0  0  0  0  0  0  0
   18.5553  135.6988   -2.8319 H   0  0  0  0  0  0  0  0  0  0  0  0
   21.6971  134.8395   -4.4088 H   0  0  0  0  0  0  0  0  0  0  0  0
   23.1583  134.7103   -2.5197 H   0  0  0  0  0  0  0  0  0  0  0  0
   23.0742  136.3728   -0.8033 H   0  0  0  0  0  0  0  0  0  0  0  0
   20.0421  138.3227   -2.8662 H   0  0  0  0  0  0  0  0  0  0  0  0
   21.3550  137.4247   -6.0741 H   0  0  0  0  0  0  0  0  0  0  0  0
   16.4858  136.6523   -8.1999 H   0  0  0  0  0  0  0  0  0  0  0  0
   17.3959  137.9249   -8.6678 H   0  0  0  0  0  0  0  0  0  0  0  0
   17.8266  136.4103   -9.1001 H   0  0  0  0  0  0  0  0  0  0  0  0
  1  2  1  0  0  0  0
  2  3  1  0  0  0  0
  3  4  2  0  0  0  0
  4  5  1  0  0  0  0
  5  6  2  0  0  0  0
  6  7  1  0  0  0  0
  7  8  1  0  0  0  0
  7  9  1  0  0  0  0
  9 10  2  0  0  0  0
 10 11  1  0  0  0  0
 11 12  2  0  0  0  0
 12 13  1  0  0  0  0
 12 14  1  0  0  0  0
 14 15  2  0  0  0  0
  7 16  1  0  0  0  0
 16 17  2  0  0  0  0
 17 18  1  0  0  0  0
 18 19  2  0  0  0  0
 19 20  1  0  0  0  0
 20 21  2  0  0  0  0
 20 22  1  0  0  0  0
 22 23  1  0  0  0  0
 23 24  2  0  0  0  0
 24 25  1  0  0  0  0
 25 26  2  0  0  0  0
 26 27  1  0  0  0  0
 27 28  1  0  0  0  0
 27 29  2  0  0  0  0
 22 30  2  0  0  0  0
 30 31  1  0  0  0  0
 31 32  2  0  0  0  0
 31 33  1  0  0  0  0
 33 34  1  0  0  0  0
  6  2  1  0  0  0  0
 15  9  1  0  0  0  0
 21 16  1  0  0  0  0
 29 23  1  0  0  0  0
 33 19  1  0  0  0  0
  1 35  1  0  0  0  0
  1 36  1  0  0  0  0
  1 37  1  0  0  0  0
  3 38  1  0  0  0  0
  5 39  1  0  0  0  0
 34 56  1  0  0  0  0
  8 40  1  0  0  0  0
  8 41  1  0  0  0  0
 10 42  1  0  0  0  0
 11 43  1  0  0  0  0
 14 44  1  0  0  0  0
 15 45  1  0  0  0  0
 17 46  1  0  0  0  0
 18 47  1  0  0  0  0
 21 48  1  0  0  0  0
 24 49  1  0  0  0  0
 25 50  1  0  0  0  0
 26 51  1  0  0  0  0
 29 52  1  0  0  0  0
 30 53  1  0  0  0  0
 34 54  1  0  0  0  0
 34 55  1  0  0  0  0
M  END
> <BIOSOLVEIT.HYDE_ESTIMATED_AFFINITY_LOWER_BOUNDARY [nM]>
127988.840677

> <BIOSOLVEIT.HYDE_ESTIMATED_AFFINITY_UPPER_BOUNDARY [nM]>
12716448.051222

> <BIOSOLVEIT.HYDE_LIGAND_EFFICIENCY range: ++, +, 0, -, -->
--

> <BIOSOLVEIT.HYDE_LIGAND_LIPOPHILIC_EFFICIENCY range: ++, +, 0, -, -->
--

> <BIOSOLVEIT.INTER_CLASH range: red, yellow, green>
green

> <BIOSOLVEIT.INTRA_CLASH range: red, yellow, green>
red

> <BIOSOLVEIT.LOGP>
5.3856

> <BIOSOLVEIT.MOLECULAR WEIGHT>
489.404

> <BIOSOLVEIT.MOLECULE_CHECKSUM>
LTE2LjUyMDM7MC40ODU4OTE=

> <BIOSOLVEIT.TORSION_QUALITY range: red, yellow, green, not rotatable>
green

> <BIOSOLVEIT.TPSA>
64.15

$$$$
1SA4_JAN_3
foHydescor03192112173D 1   1.00000     0.00000     0
Hydescorer 1.1.0 fol007
 57 61  0  0  0  0            999 V2000
   14.2999  134.8783   -3.5338 C   0  0  0  0  0  0  0  0  0  0  0  0
   14.2220  133.4204   -3.3592 N   0  0  0  0  0  0  0  0  0  0  0  0
   13.0733  132.6843   -3.3642 C   0  0  0  0  0  0  0  0  0  0  0  0
   13.4032  131.4246   -3.1822 N   0  0  0  0  0  0  0  0  0  0  0  0
   14.7610  131.3367   -3.0586 C   0  0  0  0  0  0  0  0  0  0  0  0
   15.2851  132.5916   -3.1686 C   0  0  0  0  0  0  0  0  0  0  0  0
   16.7730  132.9820   -3.0977 C   0  0  2  0  0  0  0  0  0  0  0  0
   17.5862  131.7407   -3.1557 N   0  3  0  0  0  0  0  0  0  0  0  0
   17.0406  133.7198   -1.7645 C   0  0  0  0  0  0  0  0  0  0  0  0
   16.4092  134.9356   -1.5207 C   0  0  0  0  0  0  0  0  0  0  0  0
   16.6383  135.6112   -0.3265 C   0  0  0  0  0  0  0  0  0  0  0  0
   17.5022  135.0561    0.6111 C   0  0  0  0  0  0  0  0  0  0  0  0
   17.8062  135.9082    2.1443 Cl  0  0  0  0  0  0  0  0  0  0  0  0
   18.1338  133.8411    0.3692 C   0  0  0  0  0  0  0  0  0  0  0  0
   17.9039  133.1664   -0.8253 C   0  0  0  0  0  0  0  0  0  0  0  0
   17.1593  133.8790   -4.2555 C   0  0  0  0  0  0  0  0  0  0  0  0
   16.4133  133.8487   -5.4257 C   0  0  0  0  0  0  0  0  0  0  0  0
   16.8069  134.6898   -6.4580 C   0  0  0  0  0  0  0  0  0  0  0  0
   17.9069  135.5314   -6.3260 C   0  0  0  0  0  0  0  0  0  0  0  0
   18.6294  135.5348   -5.1410 C   0  0  0  0  0  0  0  0  0  0  0  0
   18.2611  134.7042   -4.0889 C   0  0  0  0  0  0  0  0  0  0  0  0
   19.7824  136.4092   -5.0068 C   0  0  0  0  0  0  0  0  0  0  0  0
   20.5720  136.4408   -3.7894 C   0  0  0  0  0  0  0  0  0  0  0  0
   20.1474  137.2232   -2.7207 C   0  0  0  0  0  0  0  0  0  0  0  0
   20.9103  137.2479   -1.5575 C   0  0  0  0  0  0  0  0  0  0  0  0
   22.0816  136.5050   -1.4551 C   0  0  0  0  0  0  0  0  0  0  0  0
   22.4869  135.7297   -2.5365 C   0  0  0  0  0  0  0  0  0  0  0  0
   23.9835  134.7726   -2.4260 Cl  0  0  0  0  0  0  0  0  0  0  0  0
   21.7403  135.6904   -3.7095 C   0  0  0  0  0  0  0  0  0  0  0  0
   20.1730  137.2140   -5.9784 C   0  0  0  0  0  0  0  0  0  0  0  0
   19.4278  137.2272   -7.2224 C   0  0  0  0  0  0  0  0  0  0  0  0
   19.7883  137.9715   -8.1201 O   0  0  0  0  0  0  0  0  0  0  0  0
   18.3161  136.3848   -7.3587 N   0  0  0  0  0  0  0  0  0  0  0  0
   17.5971  136.4341   -8.6428 C   0  0  0  0  0  0  0  0  0  0  0  0
   15.2558  135.1687   -3.4895 H   0  0  0  0  0  0  0  0  0  0  0  0
   13.9164  135.1286   -4.4228 H   0  0  0  0  0  0  0  0  0  0  0  0
   13.7807  135.3292   -2.8078 H   0  0  0  0  0  0  0  0  0  0  0  0
   12.1462  133.0393   -3.4848 H   0  0  0  0  0  0  0  0  0  0  0  0
   15.2820  130.4958   -2.9124 H   0  0  0  0  0  0  0  0  0  0  0  0
   17.4160  131.2709   -4.0220 H   0  0  0  0  0  0  0  0  0  0  0  0
   18.5562  131.9742   -3.0881 H   0  0  0  0  0  0  0  0  0  0  0  0
   17.3339  131.1412   -2.3962 H   0  0  0  0  0  0  0  0  0  0  0  0
   15.7907  135.3238   -2.2039 H   0  0  0  0  0  0  0  0  0  0  0  0
   16.1874  136.4850   -0.1446 H   0  0  0  0  0  0  0  0  0  0  0  0
   18.7522  133.4532    1.0527 H   0  0  0  0  0  0  0  0  0  0  0  0
   18.3546  132.2923   -1.0066 H   0  0  0  0  0  0  0  0  0  0  0  0
   15.6226  133.2441   -5.5216 H   0  0  0  0  0  0  0  0  0  0  0  0
   16.2893  134.6906   -7.3136 H   0  0  0  0  0  0  0  0  0  0  0  0
   18.7780  134.7019   -3.2329 H   0  0  0  0  0  0  0  0  0  0  0  0
   19.3063  137.7599   -2.7874 H   0  0  0  0  0  0  0  0  0  0  0  0
   20.6123  137.8077   -0.7843 H   0  0  0  0  0  0  0  0  0  0  0  0
   22.6248  136.5279   -0.6158 H   0  0  0  0  0  0  0  0  0  0  0  0
   22.0388  135.1314   -4.4831 H   0  0  0  0  0  0  0  0  0  0  0  0
   20.9705  137.8053   -5.8580 H   0  0  0  0  0  0  0  0  0  0  0  0
   16.8291  135.7939   -8.6197 H   0  0  0  0  0  0  0  0  0  0  0  0
   17.2541  137.3606   -8.7975 H   0  0  0  0  0  0  0  0  0  0  0  0
   18.2196  136.1811   -9.3833 H   0  0  0  0  0  0  0  0  0  0  0  0
  1  2  1  0  0  0  0
  2  3  1  0  0  0  0
  3  4  2  0  0  0  0
  4  5  1  0  0  0  0
  5  6  2  0  0  0  0
  6  7  1  0  0  0  0
  7  8  1  0  0  0  0
  7  9  1  0  0  0  0
  9 10  2  0  0  0  0
 10 11  1  0  0  0  0
 11 12  2  0  0  0  0
 12 13  1  0  0  0  0
 12 14  1  0  0  0  0
 14 15  2  0  0  0  0
  7 16  1  0  0  0  0
 16 17  2  0  0  0  0
 17 18  1  0  0  0  0
 18 19  2  0  0  0  0
 19 20  1  0  0  0  0
 20 21  2  0  0  0  0
 20 22  1  0  0  0  0
 22 23  1  0  0  0  0
 23 24  2  0  0  0  0
 24 25  1  0  0  0  0
 25 26  2  0  0  0  0
 26 27  1  0  0  0  0
 27 28  1  0  0  0  0
 27 29  2  0  0  0  0
 22 30  2  0  0  0  0
 30 31  1  0  0  0  0
 31 32  2  0  0  0  0
 31 33  1  0  0  0  0
 33 34  1  0  0  0  0
  6  2  1  0  0  0  0
 15  9  1  0  0  0  0
 21 16  1  0  0  0  0
 29 23  1  0  0  0  0
 33 19  1  0  0  0  0
  1 35  1  0  0  0  0
  1 36  1  0  0  0  0
  1 37  1  0  0  0  0
  3 38  1  0  0  0  0
  5 39  1  0  0  0  0
  8 40  1  0  0  0  0
  8 41  1  0  0  0  0
  8 42  1  0  0  0  0
 10 43  1  0  0  0  0
 11 44  1  0  0  0  0
 14 45  1  0  0  0  0
 15 46  1  0  0  0  0
 17 47  1  0  0  0  0
 18 48  1  0  0  0  0
 21 49  1  0  0  0  0
 24 50  1  0  0  0  0
 25 51  1  0  0  0  0
 26 52  1  0  0  0  0
 29 53  1  0  0  0  0
 30 54  1  0  0  0  0
 34 55  1  0  0  0  0
 34 56  1  0  0  0  0
 34 57  1  0  0  0  0
M  CHG  1   8   1
M  END
> <BIOSOLVEIT.HYDE_ESTIMATED_AFFINITY_LOWER_BOUNDARY [nM]>
646054.518999

> <BIOSOLVEIT.HYDE_ESTIMATED_AFFINITY_UPPER_BOUNDARY [nM]>
64189336.239135

> <BIOSOLVEIT.HYDE_LIGAND_EFFICIENCY range: ++, +, 0, -, -->
--

> <BIOSOLVEIT.HYDE_LIGAND_LIPOPHILIC_EFFICIENCY range: ++, +, 0, -, -->
--

> <BIOSOLVEIT.INTER_CLASH range: red, yellow, green>
green

> <BIOSOLVEIT.INTRA_CLASH range: red, yellow, green>
yellow

> <BIOSOLVEIT.LOGP>
4.6688

> <BIOSOLVEIT.MOLECULAR WEIGHT>
490.412

> <BIOSOLVEIT.MOLECULE_CHECKSUM>
LTEyLjUwNzswLjM2Nzg1Mw==

> <BIOSOLVEIT.TORSION_QUALITY range: red, yellow, green, not rotatable>
green

> <BIOSOLVEIT.TPSA>
65.77

$$$$
1MZC_BNE_1
foHydescor03192112173D 1   1.00000     0.00000     0
Hydescorer 1.1.0 fol007
 69 72  0  0  0  0            999 V2000
   14.5366  137.1476   -1.2521 C   0  0  0  0  0  0  0  0  0  0  0  0
   14.2497  137.0424   -2.7594 C   0  0  0  0  0  0  0  0  0  0  0  0
   15.2390  136.2782   -3.6258 C   0  0  2  0  0  0  0  0  0  0  0  0
   15.0185  134.7954   -3.3779 C   0  0  0  0  0  0  0  0  0  0  0  0
   13.7707  134.2290   -3.6169 C   0  0  0  0  0  0  0  0  0  0  0  0
   13.5916  132.8693   -3.3828 C   0  0  0  0  0  0  0  0  0  0  0  0
   14.6367  132.0787   -2.9167 C   0  0  0  0  0  0  0  0  0  0  0  0
   15.8763  132.6654   -2.6840 C   0  0  0  0  0  0  0  0  0  0  0  0
   16.9361  131.8749   -2.2132 O   0  0  0  0  0  0  0  0  0  0  0  0
   18.2267  132.2675   -2.1630 C   0  0  0  0  0  0  0  0  0  0  0  0
   18.7724  132.6109   -0.9305 C   0  0  0  0  0  0  0  0  0  0  0  0
   20.1015  133.0167   -0.8711 C   0  0  0  0  0  0  0  0  0  0  0  0
   20.7084  133.3946    0.4706 C   0  0  2  0  0  0  0  0  0  0  0  0
   21.4057  134.7752    0.4395 C   0  0  0  0  0  0  0  0  0  0  0  0
   21.7078  132.3627    0.8196 N   0  3  0  0  0  0  0  0  0  0  0  0
   19.5894  133.4810    1.5213 C   0  0  0  0  0  0  0  0  0  0  0  0
   19.3480  132.5699    2.5072 C   0  0  0  0  0  0  0  0  0  0  0  0
   18.2751  133.0251    3.2148 N   0  0  0  0  0  0  0  0  0  0  0  0
   17.8757  134.1628    2.6876 C   0  0  0  0  0  0  0  0  0  0  0  0
   18.6757  134.4809    1.6345 N   0  0  0  0  0  0  0  0  0  0  0  0
   18.5692  135.6707    0.7768 C   0  0  0  0  0  0  0  0  0  0  0  0
   20.8828  133.0820   -2.0204 C   0  0  0  0  0  0  0  0  0  0  0  0
   20.3264  132.7361   -3.2474 C   0  0  0  0  0  0  0  0  0  0  0  0
   18.9982  132.3286   -3.3187 C   0  0  0  0  0  0  0  0  0  0  0  0
   18.4213  131.9699   -4.5909 C   0  0  0  0  0  0  0  0  0  0  0  0
   17.9579  131.6837   -5.6117 N   0  0  0  0  0  0  0  0  0  0  0  0
   16.0773  134.0228   -2.9115 C   0  0  0  0  0  0  0  0  0  0  0  0
   16.6716  136.5661   -3.1941 C   0  0  0  0  0  0  0  0  0  0  0  0
   17.2683  137.8426   -3.7783 C   0  0  0  0  0  0  0  0  0  0  0  0
   17.9488  137.5677   -5.1094 C   0  0  0  0  0  0  0  0  0  0  0  0
   17.3053  136.3286   -5.7110 C   0  0  0  0  0  0  0  0  0  0  0  0
   15.9097  136.5917   -6.0954 N   0  0  0  0  0  0  0  0  0  0  0  0
   15.5799  136.8789   -7.5006 C   0  0  0  0  0  0  0  0  0  0  0  0
   14.9273  136.5592   -5.0921 C   0  0  0  0  0  0  0  0  0  0  0  0
   13.7725  136.7716   -5.4153 O   0  0  0  0  0  0  0  0  0  0  0  0
   13.8095  137.6730   -0.8103 H   0  0  0  0  0  0  0  0  0  0  0  0
   14.5736  136.2306   -0.8550 H   0  0  0  0  0  0  0  0  0  0  0  0
   15.4133  137.6076   -1.1110 H   0  0  0  0  0  0  0  0  0  0  0  0
   14.1995  137.9746   -3.1177 H   0  0  0  0  0  0  0  0  0  0  0  0
   13.3599  136.5975   -2.8618 H   0  0  0  0  0  0  0  0  0  0  0  0
   13.0140  134.7905   -3.9520 H   0  0  0  0  0  0  0  0  0  0  0  0
   12.6979  132.4541   -3.5521 H   0  0  0  0  0  0  0  0  0  0  0  0
   14.4989  131.1022   -2.7512 H   0  0  0  0  0  0  0  0  0  0  0  0
   18.2176  132.5667   -0.0997 H   0  0  0  0  0  0  0  0  0  0  0  0
   21.7868  134.9766    1.3418 H   0  0  0  0  0  0  0  0  0  0  0  0
   22.1414  134.7619   -0.2377 H   0  0  0  0  0  0  0  0  0  0  0  0
   20.7396  135.4796    0.1942 H   0  0  0  0  0  0  0  0  0  0  0  0
   22.4271  132.3470    0.1252 H   0  0  0  0  0  0  0  0  0  0  0  0
   22.1090  132.5752    1.7106 H   0  0  0  0  0  0  0  0  0  0  0  0
   21.2631  131.4679    0.8592 H   0  0  0  0  0  0  0  0  0  0  0  0
   19.8603  131.7283    2.6785 H   0  0  0  0  0  0  0  0  0  0  0  0
   17.1033  134.7092    3.0113 H   0  0  0  0  0  0  0  0  0  0  0  0
   19.2880  135.6461    0.0819 H   0  0  0  0  0  0  0  0  0  0  0  0
   17.6744  135.6808    0.3305 H   0  0  0  0  0  0  0  0  0  0  0  0
   18.6729  136.4941    1.3346 H   0  0  0  0  0  0  0  0  0  0  0  0
   21.8372  133.3755   -1.9648 H   0  0  0  0  0  0  0  0  0  0  0  0
   20.8811  132.7804   -4.0782 H   0  0  0  0  0  0  0  0  0  0  0  0
   16.9713  134.4379   -2.7421 H   0  0  0  0  0  0  0  0  0  0  0  0
   17.2434  135.7965   -3.4783 H   0  0  0  0  0  0  0  0  0  0  0  0
   16.6873  136.6427   -2.1972 H   0  0  0  0  0  0  0  0  0  0  0  0
   17.9412  138.2119   -3.1373 H   0  0  0  0  0  0  0  0  0  0  0  0
   16.5378  138.5113   -3.9166 H   0  0  0  0  0  0  0  0  0  0  0  0
   18.9256  137.4085   -4.9660 H   0  0  0  0  0  0  0  0  0  0  0  0
   17.8247  138.3476   -5.7228 H   0  0  0  0  0  0  0  0  0  0  0  0
   17.3249  135.5902   -5.0370 H   0  0  0  0  0  0  0  0  0  0  0  0
   17.8213  136.0534   -6.5221 H   0  0  0  0  0  0  0  0  0  0  0  0
   14.5956  137.0329   -7.5871 H   0  0  0  0  0  0  0  0  0  0  0  0
   16.0727  137.6966   -7.7983 H   0  0  0  0  0  0  0  0  0  0  0  0
   15.8472  136.1024   -8.0712 H   0  0  0  0  0  0  0  0  0  0  0  0
  1  2  1  0  0  0  0
  2  3  1  0  0  0  0
  3  4  1  0  0  0  0
  4  5  2  0  0  0  0
  5  6  1  0  0  0  0
  6  7  2  0  0  0  0
  7  8  1  0  0  0  0
  8  9  1  0  0  0  0
  9 10  1  0  0  0  0
 10 11  2  0  0  0  0
 11 12  1  0  0  0  0
 12 13  1  0  0  0  0
 13 14  1  0  0  0  0
 13 15  1  0  0  0  0
 13 16  1  0  0  0  0
 16 17  2  0  0  0  0
 17 18  1  0  0  0  0
 18 19  2  0  0  0  0
 19 20  1  0  0  0  0
 20 21  1  0  0  0  0
 12 22  2  0  0  0  0
 22 23  1  0  0  0  0
 23 24  2  0  0  0  0
 24 25  1  0  0  0  0
 25 26  3  0  0  0  0
  8 27  2  0  0  0  0
  3 28  1  0  0  0  0
 28 29  1  0  0  0  0
 29 30  1  0  0  0  0
 30 31  1  0  0  0  0
 31 32  1  0  0  0  0
 32 33  1  0  0  0  0
 32 34  1  0  0  0  0
 34 35  2  0  0  0  0
 34  3  1  0  0  0  0
 27  4  1  0  0  0  0
 24 10  1  0  0  0  0
 20 16  1  0  0  0  0
  1 36  1  0  0  0  0
  1 37  1  0  0  0  0
  1 38  1  0  0  0  0
  2 39  1  0  0  0  0
  2 40  1  0  0  0  0
  5 41  1  0  0  0  0
  6 42  1  0  0  0  0
  7 43  1  0  0  0  0
 11 44  1  0  0  0  0
 14 45  1  0  0  0  0
 14 46  1  0  0  0  0
 14 47  1  0  0  0  0
 15 48  1  0  0  0  0
 15 49  1  0  0  0  0
 15 50  1  0  0  0  0
 17 51  1  0  0  0  0
 19 52  1  0  0  0  0
 21 53  1  0  0  0  0
 21 54  1  0  0  0  0
 21 55  1  0  0  0  0
 22 56  1  0  0  0  0
 23 57  1  0  0  0  0
 27 58  1  0  0  0  0
 28 59  1  0  0  0  0
 28 60  1  0  0  0  0
 29 61  1  0  0  0  0
 29 62  1  0  0  0  0
 30 63  1  0  0  0  0
 30 64  1  0  0  0  0
 31 65  1  0  0  0  0
 31 66  1  0  0  0  0
 33 67  1  0  0  0  0
 33 68  1  0  0  0  0
 33 69  1  0  0  0  0
M  CHG  1  15   1
M  END
> <BIOSOLVEIT.HYDE_ESTIMATED_AFFINITY_LOWER_BOUNDARY [nM]>
0.177304

> <BIOSOLVEIT.HYDE_ESTIMATED_AFFINITY_UPPER_BOUNDARY [nM]>
17.616167

> <BIOSOLVEIT.HYDE_LIGAND_EFFICIENCY range: ++, +, 0, -, -->
0

> <BIOSOLVEIT.HYDE_LIGAND_LIPOPHILIC_EFFICIENCY range: ++, +, 0, -, -->
0

> <BIOSOLVEIT.INTER_CLASH range: red, yellow, green>
yellow

> <BIOSOLVEIT.INTRA_CLASH range: red, yellow, green>
yellow

> <BIOSOLVEIT.LOGP>
3.87958

> <BIOSOLVEIT.MOLECULAR WEIGHT>
472.61

> <BIOSOLVEIT.MOLECULE_CHECKSUM>
LTQ5Ljk2MDQ7MS40Mjc0NA==

> <BIOSOLVEIT.TORSION_QUALITY range: red, yellow, green, not rotatable>
green

> <BIOSOLVEIT.TPSA>
98.79

$$$$
1MZC_BNE_2
foHydescor03192112173D 1   1.00000     0.00000     0
Hydescorer 1.1.0 fol007
 69 72  0  0  0  0            999 V2000
   13.0561  136.8782   -4.1744 C   0  0  0  0  0  0  0  0  0  0  0  0
   13.7335  136.0393   -5.2710 C   0  0  0  0  0  0  0  0  0  0  0  0
   15.1107  135.4581   -4.9821 C   0  0  2  0  0  0  0  0  0  0  0  0
   14.8728  134.1612   -4.2269 C   0  0  0  0  0  0  0  0  0  0  0  0
   13.6070  133.5845   -4.2180 C   0  0  0  0  0  0  0  0  0  0  0  0
   13.4122  132.3972   -3.5198 C   0  0  0  0  0  0  0  0  0  0  0  0
   14.4594  131.7870   -2.8374 C   0  0  0  0  0  0  0  0  0  0  0  0
   15.7172  132.3808   -2.8591 C   0  0  0  0  0  0  0  0  0  0  0  0
   16.7791  131.7719   -2.1727 O   0  0  0  0  0  0  0  0  0  0  0  0
   18.0582  132.2029   -2.1945 C   0  0  0  0  0  0  0  0  0  0  0  0
   18.6371  132.6362   -1.0062 C   0  0  0  0  0  0  0  0  0  0  0  0
   19.9545  133.0819   -1.0212 C   0  0  0  0  0  0  0  0  0  0  0  0
   20.5973  133.5580    0.2717 C   0  0  2  0  0  0  0  0  0  0  0  0
   21.1539  134.9972    0.1638 C   0  0  0  0  0  0  0  0  0  0  0  0
   21.7107  132.6379    0.5866 N   0  3  0  0  0  0  0  0  0  0  0  0
   19.5370  133.5694    1.3849 C   0  0  0  0  0  0  0  0  0  0  0  0
   19.3978  132.6307    2.3646 C   0  0  0  0  0  0  0  0  0  0  0  0
   18.3456  133.0188    3.1399 N   0  0  0  0  0  0  0  0  0  0  0  0
   17.8607  134.1434    2.6587 C   0  0  0  0  0  0  0  0  0  0  0  0
   18.5826  134.5197    1.5689 N   0  0  0  0  0  0  0  0  0  0  0  0
   18.3684  135.7168    0.7423 C   0  0  0  0  0  0  0  0  0  0  0  0
   20.6919  133.0988   -2.2008 C   0  0  0  0  0  0  0  0  0  0  0  0
   20.1027  132.6633   -3.3831 C   0  0  0  0  0  0  0  0  0  0  0  0
   18.7858  132.2151   -3.3800 C   0  0  0  0  0  0  0  0  0  0  0  0
   18.1749  131.7634   -4.6058 C   0  0  0  0  0  0  0  0  0  0  0  0
   17.6842  131.4025   -5.5895 N   0  0  0  0  0  0  0  0  0  0  0  0
   15.9341  133.5677   -3.5509 C   0  0  0  0  0  0  0  0  0  0  0  0
   15.8939  136.3576   -4.0158 C   0  0  0  0  0  0  0  0  0  0  0  0
   16.1512  137.8254   -4.3813 C   0  0  0  0  0  0  0  0  0  0  0  0
   16.1638  138.2362   -5.8606 C   0  0  0  0  0  0  0  0  0  0  0  0
   16.9658  137.3851   -6.8556 C   0  0  0  0  0  0  0  0  0  0  0  0
   16.5559  135.9874   -7.1429 N   0  0  0  0  0  0  0  0  0  0  0  0
   17.0455  135.4332   -8.4151 C   0  0  0  0  0  0  0  0  0  0  0  0
   15.7571  135.1350   -6.3376 C   0  0  0  0  0  0  0  0  0  0  0  0
   15.5553  134.0130   -6.7717 O   0  0  0  0  0  0  0  0  0  0  0  0
   12.1642  137.1932   -4.4988 H   0  0  0  0  0  0  0  0  0  0  0  0
   12.9341  136.3188   -3.3545 H   0  0  0  0  0  0  0  0  0  0  0  0
   13.6297  137.6680   -3.9567 H   0  0  0  0  0  0  0  0  0  0  0  0
   13.8207  136.6219   -6.0791 H   0  0  0  0  0  0  0  0  0  0  0  0
   13.1250  135.2728   -5.4768 H   0  0  0  0  0  0  0  0  0  0  0  0
   12.8487  134.0168   -4.7060 H   0  0  0  0  0  0  0  0  0  0  0  0
   12.5054  131.9758   -3.5084 H   0  0  0  0  0  0  0  0  0  0  0  0
   14.3102  130.9335   -2.3381 H   0  0  0  0  0  0  0  0  0  0  0  0
   18.1139  132.6273   -0.1539 H   0  0  0  0  0  0  0  0  0  0  0  0
   21.5644  135.2622    1.0363 H   0  0  0  0  0  0  0  0  0  0  0  0
   21.8475  135.0333   -0.5556 H   0  0  0  0  0  0  0  0  0  0  0  0
   20.4094  135.6267   -0.0592 H   0  0  0  0  0  0  0  0  0  0  0  0
   22.4244  132.7285   -0.1079 H   0  0  0  0  0  0  0  0  0  0  0  0
   22.0880  132.8661    1.4841 H   0  0  0  0  0  0  0  0  0  0  0  0
   21.3727  131.6968    0.5965 H   0  0  0  0  0  0  0  0  0  0  0  0
   19.9602  131.8135    2.4902 H   0  0  0  0  0  0  0  0  0  0  0  0
   17.0816  134.6442    3.0358 H   0  0  0  0  0  0  0  0  0  0  0  0
   19.0469  135.7405    0.0080 H   0  0  0  0  0  0  0  0  0  0  0  0
   17.4503  135.6890    0.3470 H   0  0  0  0  0  0  0  0  0  0  0  0
   18.4624  136.5348    1.3097 H   0  0  0  0  0  0  0  0  0  0  0  0
   21.6383  133.4217   -2.1987 H   0  0  0  0  0  0  0  0  0  0  0  0
   20.6258  132.6723   -4.2353 H   0  0  0  0  0  0  0  0  0  0  0  0
   16.8409  133.9889   -3.5623 H   0  0  0  0  0  0  0  0  0  0  0  0
   16.7886  135.9309   -3.8834 H   0  0  0  0  0  0  0  0  0  0  0  0
   15.3934  136.3580   -3.1501 H   0  0  0  0  0  0  0  0  0  0  0  0
   17.0441  138.0689   -4.0025 H   0  0  0  0  0  0  0  0  0  0  0  0
   15.4400  138.3672   -3.9333 H   0  0  0  0  0  0  0  0  0  0  0  0
   16.5312  139.1652   -5.9050 H   0  0  0  0  0  0  0  0  0  0  0  0
   15.2140  138.2380   -6.1736 H   0  0  0  0  0  0  0  0  0  0  0  0
   17.9032  137.3447   -6.5095 H   0  0  0  0  0  0  0  0  0  0  0  0
   16.9532  137.8738   -7.7279 H   0  0  0  0  0  0  0  0  0  0  0  0
   16.7186  134.4937   -8.5171 H   0  0  0  0  0  0  0  0  0  0  0  0
   16.7050  135.9888   -9.1736 H   0  0  0  0  0  0  0  0  0  0  0  0
   18.0455  135.4406   -8.4191 H   0  0  0  0  0  0  0  0  0  0  0  0
  1  2  1  0  0  0  0
  2  3  1  0  0  0  0
  3  4  1  0  0  0  0
  4  5  2  0  0  0  0
  5  6  1  0  0  0  0
  6  7  2  0  0  0  0
  7  8  1  0  0  0  0
  8  9  1  0  0  0  0
  9 10  1  0  0  0  0
 10 11  2  0  0  0  0
 11 12  1  0  0  0  0
 12 13  1  0  0  0  0
 13 14  1  0  0  0  0
 13 15  1  0  0  0  0
 13 16  1  0  0  0  0
 16 17  2  0  0  0  0
 17 18  1  0  0  0  0
 18 19  2  0  0  0  0
 19 20  1  0  0  0  0
 20 21  1  0  0  0  0
 12 22  2  0  0  0  0
 22 23  1  0  0  0  0
 23 24  2  0  0  0  0
 24 25  1  0  0  0  0
 25 26  3  0  0  0  0
  8 27  2  0  0  0  0
  3 28  1  0  0  0  0
 28 29  1  0  0  0  0
 29 30  1  0  0  0  0
 30 31  1  0  0  0  0
 31 32  1  0  0  0  0
 32 33  1  0  0  0  0
 32 34  1  0  0  0  0
 34 35  2  0  0  0  0
 34  3  1  0  0  0  0
 27  4  1  0  0  0  0
 24 10  1  0  0  0  0
 20 16  1  0  0  0  0
  1 36  1  0  0  0  0
  1 37  1  0  0  0  0
  1 38  1  0  0  0  0
  2 39  1  0  0  0  0
  2 40  1  0  0  0  0
  5 41  1  0  0  0  0
  6 42  1  0  0  0  0
  7 43  1  0  0  0  0
 11 44  1  0  0  0  0
 14 45  1  0  0  0  0
 14 46  1  0  0  0  0
 14 47  1  0  0  0  0
 15 48  1  0  0  0  0
 15 49  1  0  0  0  0
 15 50  1  0  0  0  0
 17 51  1  0  0  0  0
 19 52  1  0  0  0  0
 21 53  1  0  0  0  0
 21 54  1  0  0  0  0
 21 55  1  0  0  0  0
 22 56  1  0  0  0  0
 23 57  1  0  0  0  0
 27 58  1  0  0  0  0
 28 59  1  0  0  0  0
 28 60  1  0  0  0  0
 29 61  1  0  0  0  0
 29 62  1  0  0  0  0
 30 63  1  0  0  0  0
 30 64  1  0  0  0  0
 31 65  1  0  0  0  0
 31 66  1  0  0  0  0
 33 67  1  0  0  0  0
 33 68  1  0  0  0  0
 33 69  1  0  0  0  0
M  CHG  1  15   1
M  END
> <BIOSOLVEIT.HYDE_ESTIMATED_AFFINITY_LOWER_BOUNDARY [nM]>
3.089390

> <BIOSOLVEIT.HYDE_ESTIMATED_AFFINITY_UPPER_BOUNDARY [nM]>
306.949195

> <BIOSOLVEIT.HYDE_LIGAND_EFFICIENCY range: ++, +, 0, -, -->
-

> <BIOSOLVEIT.HYDE_LIGAND_LIPOPHILIC_EFFICIENCY range: ++, +, 0, -, -->
0

> <BIOSOLVEIT.INTER_CLASH range: red, yellow, green>
yellow

> <BIOSOLVEIT.INTRA_CLASH range: red, yellow, green>
yellow

> <BIOSOLVEIT.LOGP>
3.87958

> <BIOSOLVEIT.MOLECULAR WEIGHT>
472.61

> <BIOSOLVEIT.MOLECULE_CHECKSUM>
LTQyLjg3NTk7MS4yMjUwMw==

> <BIOSOLVEIT.TORSION_QUALITY range: red, yellow, green, not rotatable>
green

> <BIOSOLVEIT.TPSA>
98.79

$$$$
1MZC_BNE_3
foHydescor03192112173D 1   1.00000     0.00000     0
Hydescorer 1.1.0 fol007
 69 72  0  0  0  0            999 V2000
   14.1455  137.0242   -2.7828 C   0  0  0  0  0  0  0  0  0  0  0  0
   13.8997  136.3465   -4.1415 C   0  0  0  0  0  0  0  0  0  0  0  0
   14.9514  135.3775   -4.6599 C   0  0  2  0  0  0  0  0  0  0  0  0
   14.8050  134.0426   -3.9491 C   0  0  0  0  0  0  0  0  0  0  0  0
   13.5546  133.4409   -3.8513 C   0  0  0  0  0  0  0  0  0  0  0  0
   13.4442  132.2187   -3.1960 C   0  0  0  0  0  0  0  0  0  0  0  0
   14.5596  131.5987   -2.6430 C   0  0  0  0  0  0  0  0  0  0  0  0
   15.8006  132.2179   -2.7519 C   0  0  0  0  0  0  0  0  0  0  0  0
   16.9312  131.5993   -2.1962 O   0  0  0  0  0  0  0  0  0  0  0  0
   18.1737  132.1268   -2.1918 C   0  0  0  0  0  0  0  0  0  0  0  0
   18.7340  132.5050   -0.9762 C   0  0  0  0  0  0  0  0  0  0  0  0
   20.0139  133.0496   -0.9639 C   0  0  0  0  0  0  0  0  0  0  0  0
   20.6360  133.4669    0.3590 C   0  0  2  0  0  0  0  0  0  0  0  0
   21.2864  134.8689    0.2937 C   0  0  0  0  0  0  0  0  0  0  0  0
   21.6761  132.4735    0.7007 N   0  3  0  0  0  0  0  0  0  0  0  0
   19.5372  133.5317    1.4323 C   0  0  0  0  0  0  0  0  0  0  0  0
   19.3342  132.6168    2.4234 C   0  0  0  0  0  0  0  0  0  0  0  0
   18.2672  133.0511    3.1524 N   0  0  0  0  0  0  0  0  0  0  0  0
   17.8344  134.1801    2.6331 C   0  0  0  0  0  0  0  0  0  0  0  0
   18.6062  134.5133    1.5637 N   0  0  0  0  0  0  0  0  0  0  0  0
   18.4585  135.6999    0.7078 C   0  0  0  0  0  0  0  0  0  0  0  0
   20.7320  133.2183   -2.1435 C   0  0  0  0  0  0  0  0  0  0  0  0
   20.1617  132.8364   -3.3531 C   0  0  0  0  0  0  0  0  0  0  0  0
   18.8825  132.2904   -3.3774 C   0  0  0  0  0  0  0  0  0  0  0  0
   18.2910  131.8944   -4.6317 C   0  0  0  0  0  0  0  0  0  0  0  0
   17.8159  131.5781   -5.6382 N   0  0  0  0  0  0  0  0  0  0  0  0
   15.9336  133.4397   -3.4030 C   0  0  0  0  0  0  0  0  0  0  0  0
   16.3108  135.9012   -4.1825 C   0  0  0  0  0  0  0  0  0  0  0  0
   16.8596  137.1841   -4.8085 C   0  0  0  0  0  0  0  0  0  0  0  0
   17.3456  137.1019   -6.2589 C   0  0  0  0  0  0  0  0  0  0  0  0
   16.2839  136.9324   -7.3561 C   0  0  0  0  0  0  0  0  0  0  0  0
   15.2914  135.8256   -7.2977 N   0  0  0  0  0  0  0  0  0  0  0  0
   14.8356  135.3548   -8.6149 C   0  0  0  0  0  0  0  0  0  0  0  0
   14.7209  135.1637   -6.1711 C   0  0  0  0  0  0  0  0  0  0  0  0
   13.9258  134.2779   -6.4448 O   0  0  0  0  0  0  0  0  0  0  0  0
   13.3792  137.6302   -2.5691 H   0  0  0  0  0  0  0  0  0  0  0  0
   14.2267  136.3258   -2.0718 H   0  0  0  0  0  0  0  0  0  0  0  0
   14.9905  137.5574   -2.8243 H   0  0  0  0  0  0  0  0  0  0  0  0
   13.8038  137.0726   -4.8223 H   0  0  0  0  0  0  0  0  0  0  0  0
   13.0399  135.8410   -4.0697 H   0  0  0  0  0  0  0  0  0  0  0  0
   12.7476  133.8801   -4.2460 H   0  0  0  0  0  0  0  0  0  0  0  0
   12.5491  131.7791   -3.1215 H   0  0  0  0  0  0  0  0  0  0  0  0
   14.4708  130.7201   -2.1736 H   0  0  0  0  0  0  0  0  0  0  0  0
   18.2244  132.3872   -0.1239 H   0  0  0  0  0  0  0  0  0  0  0  0
   21.6795  135.0958    1.1848 H   0  0  0  0  0  0  0  0  0  0  0  0
   22.0078  134.8698   -0.3989 H   0  0  0  0  0  0  0  0  0  0  0  0
   20.5925  135.5474    0.0530 H   0  0  0  0  0  0  0  0  0  0  0  0
   22.0518  132.6814    1.6039 H   0  0  0  0  0  0  0  0  0  0  0  0
   21.2729  131.5584    0.7100 H   0  0  0  0  0  0  0  0  0  0  0  0
   22.4073  132.5087    0.0195 H   0  0  0  0  0  0  0  0  0  0  0  0
   19.8665  131.7857    2.5845 H   0  0  0  0  0  0  0  0  0  0  0  0
   17.0580  134.7112    2.9723 H   0  0  0  0  0  0  0  0  0  0  0  0
   19.1633  135.6891   -0.0015 H   0  0  0  0  0  0  0  0  0  0  0  0
   17.5548  135.6919    0.2799 H   0  0  0  0  0  0  0  0  0  0  0  0
   18.5571  136.5258    1.2631 H   0  0  0  0  0  0  0  0  0  0  0  0
   21.6514  133.6111   -2.1218 H   0  0  0  0  0  0  0  0  0  0  0  0
   20.6713  132.9543   -4.2055 H   0  0  0  0  0  0  0  0  0  0  0  0
   16.8289  133.8790   -3.4777 H   0  0  0  0  0  0  0  0  0  0  0  0
   16.9815  135.1793   -4.3527 H   0  0  0  0  0  0  0  0  0  0  0  0
   16.2363  136.0615   -3.1982 H   0  0  0  0  0  0  0  0  0  0  0  0
   17.6317  137.4857   -4.2490 H   0  0  0  0  0  0  0  0  0  0  0  0
   16.1337  137.8709   -4.7728 H   0  0  0  0  0  0  0  0  0  0  0  0
   17.9683  136.3220   -6.3222 H   0  0  0  0  0  0  0  0  0  0  0  0
   17.8464  137.9450   -6.4549 H   0  0  0  0  0  0  0  0  0  0  0  0
   16.7801  136.8242   -8.2176 H   0  0  0  0  0  0  0  0  0  0  0  0
   15.7595  137.7836   -7.3782 H   0  0  0  0  0  0  0  0  0  0  0  0
   14.1741  134.6148   -8.4938 H   0  0  0  0  0  0  0  0  0  0  0  0
   14.4041  136.1102   -9.1079 H   0  0  0  0  0  0  0  0  0  0  0  0
   15.6189  135.0194   -9.1383 H   0  0  0  0  0  0  0  0  0  0  0  0
  1  2  1  0  0  0  0
  2  3  1  0  0  0  0
  3  4  1  0  0  0  0
  4  5  2  0  0  0  0
  5  6  1  0  0  0  0
  6  7  2  0  0  0  0
  7  8  1  0  0  0  0
  8  9  1  0  0  0  0
  9 10  1  0  0  0  0
 10 11  2  0  0  0  0
 11 12  1  0  0  0  0
 12 13  1  0  0  0  0
 13 14  1  0  0  0  0
 13 15  1  0  0  0  0
 13 16  1  0  0  0  0
 16 17  2  0  0  0  0
 17 18  1  0  0  0  0
 18 19  2  0  0  0  0
 19 20  1  0  0  0  0
 20 21  1  0  0  0  0
 12 22  2  0  0  0  0
 22 23  1  0  0  0  0
 23 24  2  0  0  0  0
 24 25  1  0  0  0  0
 25 26  3  0  0  0  0
  8 27  2  0  0  0  0
  3 28  1  0  0  0  0
 28 29  1  0  0  0  0
 29 30  1  0  0  0  0
 30 31  1  0  0  0  0
 31 32  1  0  0  0  0
 32 33  1  0  0  0  0
 32 34  1  0  0  0  0
 34 35  2  0  0  0  0
 34  3  1  0  0  0  0
 27  4  1  0  0  0  0
 24 10  1  0  0  0  0
 20 16  1  0  0  0  0
  1 36  1  0  0  0  0
  1 37  1  0  0  0  0
  1 38  1  0  0  0  0
  2 39  1  0  0  0  0
  2 40  1  0  0  0  0
  5 41  1  0  0  0  0
  6 42  1  0  0  0  0
  7 43  1  0  0  0  0
 11 44  1  0  0  0  0
 14 45  1  0  0  0  0
 14 46  1  0  0  0  0
 14 47  1  0  0  0  0
 15 48  1  0  0  0  0
 15 49  1  0  0  0  0
 15 50  1  0  0  0  0
 17 51  1  0  0  0  0
 19 52  1  0  0  0  0
 21 53  1  0  0  0  0
 21 54  1  0  0  0  0
 21 55  1  0  0  0  0
 22 56  1  0  0  0  0
 23 57  1  0  0  0  0
 27 58  1  0  0  0  0
 28 59  1  0  0  0  0
 28 60  1  0  0  0  0
 29 61  1  0  0  0  0
 29 62  1  0  0  0  0
 30 63  1  0  0  0  0
 30 64  1  0  0  0  0
 31 65  1  0  0  0  0
 31 66  1  0  0  0  0
 33 67  1  0  0  0  0
 33 68  1  0  0  0  0
 33 69  1  0  0  0  0
M  CHG  1  15   1
M  END
> <BIOSOLVEIT.HYDE_ESTIMATED_AFFINITY_LOWER_BOUNDARY [nM]>
0.615557

> <BIOSOLVEIT.HYDE_ESTIMATED_AFFINITY_UPPER_BOUNDARY [nM]>
61.159223

> <BIOSOLVEIT.HYDE_LIGAND_EFFICIENCY range: ++, +, 0, -, -->
0

> <BIOSOLVEIT.HYDE_LIGAND_LIPOPHILIC_EFFICIENCY range: ++, +, 0, -, -->
0

> <BIOSOLVEIT.INTER_CLASH range: red, yellow, green>
yellow

> <BIOSOLVEIT.INTRA_CLASH range: red, yellow, green>
yellow

> <BIOSOLVEIT.LOGP>
3.87958

> <BIOSOLVEIT.MOLECULAR WEIGHT>
472.61

> <BIOSOLVEIT.MOLECULE_CHECKSUM>
LTQ2Ljg3NDk7MS4zMzkyOA==

> <BIOSOLVEIT.TORSION_QUALITY range: red, yellow, green, not rotatable>
green

> <BIOSOLVEIT.TPSA>
98.79

$$$$
1LD7_U66_1
foHydescor03192112173D 1   1.00000     0.00000     0
Hydescorer 1.1.0 fol007
 62 67  0  0  0  0            999 V2000
   17.6554  138.3137   -8.0989 N   0  0  0  0  0  0  0  0  0  0  0  0
   16.7573  138.3353   -7.3695 C   0  0  0  0  0  0  0  0  0  0  0  0
   15.6134  138.3635   -6.4365 C   0  0  2  0  0  0  0  0  0  0  0  0
   15.4172  139.7968   -5.8985 C   0  0  0  0  0  0  0  0  0  0  0  0
   16.5131  140.1222   -4.9235 C   0  0  0  0  0  0  0  0  0  0  0  0
   16.8517  139.2124   -3.9945 C   0  0  0  0  0  0  0  0  0  0  0  0
   16.0337  137.9449   -3.8984 C   0  0  0  0  0  0  0  0  0  0  0  0
   15.8047  137.3057   -5.2943 C   0  0  1  0  0  0  0  0  0  0  0  0
   14.6370  136.4813   -5.2528 O   0  0  0  0  0  0  0  0  0  0  0  0
   14.5121  135.2337   -4.6206 C   0  0  0  0  0  0  0  0  0  0  0  0
   13.2418  134.6523   -4.5952 C   0  0  0  0  0  0  0  0  0  0  0  0
   13.0364  133.4098   -3.9986 C   0  0  0  0  0  0  0  0  0  0  0  0
   14.1067  132.7226   -3.4138 C   0  0  0  0  0  0  0  0  0  0  0  0
   13.8944  131.4702   -2.8196 C   0  0  0  0  0  0  0  0  0  0  0  0
   14.9561  130.7819   -2.2356 C   0  0  0  0  0  0  0  0  0  0  0  0
   16.2359  131.3347   -2.2379 C   0  0  0  0  0  0  0  0  0  0  0  0
   16.4764  132.5845   -2.8307 C   0  0  0  0  0  0  0  0  0  0  0  0
   15.4061  133.2940   -3.4246 C   0  0  0  0  0  0  0  0  0  0  0  0
   15.5978  134.5506   -4.0347 C   0  0  0  0  0  0  0  0  0  0  0  0
   17.8036  133.1315   -2.7807 N   0  0  0  0  0  0  0  0  0  0  0  0
   18.9483  132.4463   -3.3710 C   0  0  0  0  0  0  0  0  0  0  0  0
   20.0876  132.5290   -2.3379 C   0  0  0  0  0  0  0  0  0  0  0  0
   19.6664  133.5960   -1.3056 C   0  0  1  0  0  0  0  0  0  0  0  0
   20.5154  134.8096   -1.3041 N   0  3  0  0  0  0  0  0  0  0  0  0
   20.6260  135.5506   -2.5823 C   0  0  0  0  0  0  0  0  0  0  0  0
   19.4879  136.5685   -2.7938 C   0  0  0  0  0  0  0  0  0  0  0  0
   19.8294  137.6103   -3.8338 C   0  0  0  0  0  0  0  0  0  0  0  0
   20.7219  137.4695   -4.8812 C   0  0  0  0  0  0  0  0  0  0  0  0
   20.7178  138.5887   -5.6312 N   0  0  0  0  0  0  0  0  0  0  0  0
   19.8114  139.3893   -5.0352 C   0  0  0  0  0  0  0  0  0  0  0  0
   19.2484  138.8235   -3.9476 N   0  0  0  0  0  0  0  0  0  0  0  0
   18.1185  139.3757   -3.1950 C   0  0  0  0  0  0  0  0  0  0  0  0
   18.2488  133.8582   -1.6488 C   0  0  0  0  0  0  0  0  0  0  0  0
   17.4840  134.5825   -0.9569 O   0  0  0  0  0  0  0  0  0  0  0  0
   14.7927  138.1143   -6.9505 H   0  0  0  0  0  0  0  0  0  0  0  0
   14.5319  139.8613   -5.4381 H   0  0  0  0  0  0  0  0  0  0  0  0
   15.4453  140.4449   -6.6594 H   0  0  0  0  0  0  0  0  0  0  0  0
   16.9838  141.0035   -4.9653 H   0  0  0  0  0  0  0  0  0  0  0  0
   15.1464  138.1614   -3.4911 H   0  0  0  0  0  0  0  0  0  0  0  0
   16.5166  137.2902   -3.3169 H   0  0  0  0  0  0  0  0  0  0  0  0
   16.5934  136.7327   -5.5173 H   0  0  0  0  0  0  0  0  0  0  0  0
   12.4702  135.1340   -5.0105 H   0  0  0  0  0  0  0  0  0  0  0  0
   12.1210  133.0076   -3.9882 H   0  0  0  0  0  0  0  0  0  0  0  0
   12.9782  131.0697   -2.8150 H   0  0  0  0  0  0  0  0  0  0  0  0
   14.7996  129.8889   -1.8137 H   0  0  0  0  0  0  0  0  0  0  0  0
   16.9908  130.8356   -1.8126 H   0  0  0  0  0  0  0  0  0  0  0  0
   16.5099  134.9602   -4.0520 H   0  0  0  0  0  0  0  0  0  0  0  0
   19.2197  132.8968   -4.2214 H   0  0  0  0  0  0  0  0  0  0  0  0
   18.7202  131.4909   -3.5580 H   0  0  0  0  0  0  0  0  0  0  0  0
   20.9404  132.7986   -2.7850 H   0  0  0  0  0  0  0  0  0  0  0  0
   20.2117  131.6441   -1.8891 H   0  0  0  0  0  0  0  0  0  0  0  0
   19.7003  133.1852   -0.3944 H   0  0  0  0  0  0  0  0  0  0  0  0
   21.4377  134.5329   -1.0344 H   0  0  0  0  0  0  0  0  0  0  0  0
   20.1429  135.4382   -0.6215 H   0  0  0  0  0  0  0  0  0  0  0  0
   20.6072  134.8919   -3.3344 H   0  0  0  0  0  0  0  0  0  0  0  0
   21.4972  136.0415   -2.5908 H   0  0  0  0  0  0  0  0  0  0  0  0
   19.3049  137.0299   -1.9257 H   0  0  0  0  0  0  0  0  0  0  0  0
   18.6687  136.0769   -3.0892 H   0  0  0  0  0  0  0  0  0  0  0  0
   21.2840  136.6609   -5.0551 H   0  0  0  0  0  0  0  0  0  0  0  0
   19.5809  140.3051   -5.3643 H   0  0  0  0  0  0  0  0  0  0  0  0
   18.2785  140.3471   -3.0193 H   0  0  0  0  0  0  0  0  0  0  0  0
   18.0284  138.8901   -2.3255 H   0  0  0  0  0  0  0  0  0  0  0  0
  1  2  3  0  0  0  0
  2  3  1  0  0  0  0
  3  4  1  0  0  0  0
  4  5  1  0  0  0  0
  5  6  2  0  0  0  0
  6  7  1  0  0  0  0
  7  8  1  0  0  0  0
  8  9  1  0  0  0  0
  9 10  1  0  0  0  0
 10 11  2  0  0  0  0
 11 12  1  0  0  0  0
 12 13  2  0  0  0  0
 13 14  1  0  0  0  0
 14 15  2  0  0  0  0
 15 16  1  0  0  0  0
 16 17  2  0  0  0  0
 17 18  1  0  0  0  0
 18 19  2  0  0  0  0
 17 20  1  0  0  0  0
 20 21  1  0  0  0  0
 21 22  1  0  0  0  0
 22 23  1  0  0  0  0
 23 24  1  0  0  0  0
 24 25  1  0  0  0  0
 25 26  1  0  0  0  0
 26 27  1  0  0  0  0
 27 28  2  0  0  0  0
 28 29  1  0  0  0  0
 29 30  2  0  0  0  0
 30 31  1  0  0  0  0
 31 32  1  0  0  0  0
 23 33  1  0  0  0  0
 33 34  2  0  0  0  0
  8  3  1  0  0  0  0
 19 10  1  0  0  0  0
 33 20  1  0  0  0  0
 32  6  1  0  0  0  0
 18 13  1  0  0  0  0
 31 27  1  0  0  0  0
  3 35  1  0  0  0  0
  4 36  1  0  0  0  0
  4 37  1  0  0  0  0
  5 38  1  0  0  0  0
  7 39  1  0  0  0  0
  7 40  1  0  0  0  0
  8 41  1  0  0  0  0
 11 42  1  0  0  0  0
 12 43  1  0  0  0  0
 14 44  1  0  0  0  0
 15 45  1  0  0  0  0
 16 46  1  0  0  0  0
 19 47  1  0  0  0  0
 21 48  1  0  0  0  0
 21 49  1  0  0  0  0
 22 50  1  0  0  0  0
 22 51  1  0  0  0  0
 23 52  1  0  0  0  0
 24 53  1  0  0  0  0
 24 54  1  0  0  0  0
 25 55  1  0  0  0  0
 25 56  1  0  0  0  0
 26 57  1  0  0  0  0
 26 58  1  0  0  0  0
 28 59  1  0  0  0  0
 30 60  1  0  0  0  0
 32 61  1  0  0  0  0
 32 62  1  0  0  0  0
M  CHG  1  24   1
M  END
> <BIOSOLVEIT.HYDE_ESTIMATED_AFFINITY_LOWER_BOUNDARY [nM]>
66310.495969

> <BIOSOLVEIT.HYDE_ESTIMATED_AFFINITY_UPPER_BOUNDARY [nM]>
6588339.833205

> <BIOSOLVEIT.HYDE_LIGAND_EFFICIENCY range: ++, +, 0, -, -->
--

> <BIOSOLVEIT.HYDE_LIGAND_LIPOPHILIC_EFFICIENCY range: ++, +, 0, -, -->
--

> <BIOSOLVEIT.INTER_CLASH range: red, yellow, green>
green

> <BIOSOLVEIT.INTRA_CLASH range: red, yellow, green>
green

> <BIOSOLVEIT.LOGP>
2.56868

> <BIOSOLVEIT.MOLECULAR WEIGHT>
454.551

> <BIOSOLVEIT.MOLECULE_CHECKSUM>
LTE4LjE1MDQ7MC41MzM4Mzc=

> <BIOSOLVEIT.TORSION_QUALITY range: red, yellow, green, not rotatable>
not rotatable

> <BIOSOLVEIT.TPSA>
87.76

$$$$
1LD7_U66_2
foHydescor03192112173D 1   1.00000     0.00000     0
Hydescorer 1.1.0 fol007
 62 67  0  0  0  0            999 V2000
   17.7744  138.3799   -8.4000 N   0  0  0  0  0  0  0  0  0  0  0  0
   16.8477  138.3768   -7.7067 C   0  0  0  0  0  0  0  0  0  0  0  0
   15.6672  138.3737   -6.8201 C   0  0  2  0  0  0  0  0  0  0  0  0
   15.3723  139.8116   -6.3430 C   0  0  0  0  0  0  0  0  0  0  0  0
   16.4087  140.2308   -5.3391 C   0  0  0  0  0  0  0  0  0  0  0  0
   16.7584  139.3739   -4.3651 C   0  0  0  0  0  0  0  0  0  0  0  0
   16.0067  138.0671   -4.2541 C   0  0  0  0  0  0  0  0  0  0  0  0
   15.8693  137.3682   -5.6333 C   0  0  1  0  0  0  0  0  0  0  0  0
   14.7471  136.4823   -5.6064 O   0  0  0  0  0  0  0  0  0  0  0  0
   14.6645  135.2522   -4.9341 C   0  0  0  0  0  0  0  0  0  0  0  0
   13.4276  134.6024   -4.9361 C   0  0  0  0  0  0  0  0  0  0  0  0
   13.2658  133.3718   -4.3027 C   0  0  0  0  0  0  0  0  0  0  0  0
   14.3471  132.7657   -3.6524 C   0  0  0  0  0  0  0  0  0  0  0  0
   14.1792  131.5248   -3.0212 C   0  0  0  0  0  0  0  0  0  0  0  0
   15.2521  130.9170   -2.3720 C   0  0  0  0  0  0  0  0  0  0  0  0
   16.4991  131.5396   -2.3453 C   0  0  0  0  0  0  0  0  0  0  0  0
   16.6955  132.7795   -2.9740 C   0  0  0  0  0  0  0  0  0  0  0  0
   15.6132  133.4077   -3.6343 C   0  0  0  0  0  0  0  0  0  0  0  0
   15.7609  134.6510   -4.2822 C   0  0  0  0  0  0  0  0  0  0  0  0
   17.9880  133.4008   -2.8934 N   0  0  0  0  0  0  0  0  0  0  0  0
   19.1909  132.7602   -3.4136 C   0  0  0  0  0  0  0  0  0  0  0  0
   20.2815  132.9417   -2.3413 C   0  0  0  0  0  0  0  0  0  0  0  0
   19.7618  134.0186   -1.3657 C   0  0  1  0  0  0  0  0  0  0  0  0
   20.5432  135.2768   -1.3763 N   0  3  0  0  0  0  0  0  0  0  0  0
   20.6651  135.9783   -2.6755 C   0  0  0  0  0  0  0  0  0  0  0  0
   19.4830  136.9236   -2.9678 C   0  0  0  0  0  0  0  0  0  0  0  0
   19.8094  137.9460   -4.0315 C   0  0  0  0  0  0  0  0  0  0  0  0
   20.7498  137.8190   -5.0380 C   0  0  0  0  0  0  0  0  0  0  0  0
   20.7154  138.9096   -5.8281 N   0  0  0  0  0  0  0  0  0  0  0  0
   19.7435  139.6787   -5.2973 C   0  0  0  0  0  0  0  0  0  0  0  0
   19.1686  139.1205   -4.2120 N   0  0  0  0  0  0  0  0  0  0  0  0
   17.9811  139.6348   -3.5242 C   0  0  0  0  0  0  0  0  0  0  0  0
   18.3472  134.1896   -1.7726 C   0  0  0  0  0  0  0  0  0  0  0  0
   17.5170  134.8941   -1.1375 O   0  0  0  0  0  0  0  0  0  0  0  0
   14.8826  138.0617   -7.3558 H   0  0  0  0  0  0  0  0  0  0  0  0
   14.4669  139.8429   -5.9196 H   0  0  0  0  0  0  0  0  0  0  0  0
   15.3961  140.4336   -7.1257 H   0  0  0  0  0  0  0  0  0  0  0  0
   16.8322  141.1350   -5.3951 H   0  0  0  0  0  0  0  0  0  0  0  0
   15.0933  138.2480   -3.8894 H   0  0  0  0  0  0  0  0  0  0  0  0
   16.5004  137.4608   -3.6307 H   0  0  0  0  0  0  0  0  0  0  0  0
   16.6962  136.8326   -5.8047 H   0  0  0  0  0  0  0  0  0  0  0  0
   12.6484  135.0259   -5.3981 H   0  0  0  0  0  0  0  0  0  0  0  0
   12.3737  132.9200   -4.3127 H   0  0  0  0  0  0  0  0  0  0  0  0
   13.2865  131.0744   -3.0371 H   0  0  0  0  0  0  0  0  0  0  0  0
   15.1271  130.0318   -1.9239 H   0  0  0  0  0  0  0  0  0  0  0  0
   17.2622  131.0981   -1.8732 H   0  0  0  0  0  0  0  0  0  0  0  0
   16.6495  135.1099   -4.2796 H   0  0  0  0  0  0  0  0  0  0  0  0
   19.4717  133.1954   -4.2690 H   0  0  0  0  0  0  0  0  0  0  0  0
   19.0225  131.7876   -3.5739 H   0  0  0  0  0  0  0  0  0  0  0  0
   21.1358  133.2428   -2.7650 H   0  0  0  0  0  0  0  0  0  0  0  0
   20.4353  132.0811   -1.8558 H   0  0  0  0  0  0  0  0  0  0  0  0
   19.7812  133.6421   -0.4395 H   0  0  0  0  0  0  0  0  0  0  0  0
   21.4675  135.0612   -1.0614 H   0  0  0  0  0  0  0  0  0  0  0  0
   20.1101  135.9070   -0.7320 H   0  0  0  0  0  0  0  0  0  0  0  0
   20.7123  135.2939   -3.4031 H   0  0  0  0  0  0  0  0  0  0  0  0
   21.5081  136.5162   -2.6686 H   0  0  0  0  0  0  0  0  0  0  0  0
   19.2405  137.4039   -2.1249 H   0  0  0  0  0  0  0  0  0  0  0  0
   18.7042  136.3774   -3.2761 H   0  0  0  0  0  0  0  0  0  0  0  0
   21.3614  137.0374   -5.1604 H   0  0  0  0  0  0  0  0  0  0  0  0
   19.4773  140.5683   -5.6685 H   0  0  0  0  0  0  0  0  0  0  0  0
   18.0810  140.6191   -3.3783 H   0  0  0  0  0  0  0  0  0  0  0  0
   17.8824  139.1752   -2.6416 H   0  0  0  0  0  0  0  0  0  0  0  0
  1  2  3  0  0  0  0
  2  3  1  0  0  0  0
  3  4  1  0  0  0  0
  4  5  1  0  0  0  0
  5  6  2  0  0  0  0
  6  7  1  0  0  0  0
  7  8  1  0  0  0  0
  8  9  1  0  0  0  0
  9 10  1  0  0  0  0
 10 11  2  0  0  0  0
 11 12  1  0  0  0  0
 12 13  2  0  0  0  0
 13 14  1  0  0  0  0
 14 15  2  0  0  0  0
 15 16  1  0  0  0  0
 16 17  2  0  0  0  0
 17 18  1  0  0  0  0
 18 19  2  0  0  0  0
 17 20  1  0  0  0  0
 20 21  1  0  0  0  0
 21 22  1  0  0  0  0
 22 23  1  0  0  0  0
 23 24  1  0  0  0  0
 24 25  1  0  0  0  0
 25 26  1  0  0  0  0
 26 27  1  0  0  0  0
 27 28  2  0  0  0  0
 28 29  1  0  0  0  0
 29 30  2  0  0  0  0
 30 31  1  0  0  0  0
 31 32  1  0  0  0  0
 23 33  1  0  0  0  0
 33 34  2  0  0  0  0
  8  3  1  0  0  0  0
 19 10  1  0  0  0  0
 33 20  1  0  0  0  0
 32  6  1  0  0  0  0
 18 13  1  0  0  0  0
 31 27  1  0  0  0  0
  3 35  1  0  0  0  0
  4 36  1  0  0  0  0
  4 37  1  0  0  0  0
  5 38  1  0  0  0  0
  7 39  1  0  0  0  0
  7 40  1  0  0  0  0
  8 41  1  0  0  0  0
 11 42  1  0  0  0  0
 12 43  1  0  0  0  0
 14 44  1  0  0  0  0
 15 45  1  0  0  0  0
 16 46  1  0  0  0  0
 19 47  1  0  0  0  0
 21 48  1  0  0  0  0
 21 49  1  0  0  0  0
 22 50  1  0  0  0  0
 22 51  1  0  0  0  0
 23 52  1  0  0  0  0
 24 53  1  0  0  0  0
 24 54  1  0  0  0  0
 25 55  1  0  0  0  0
 25 56  1  0  0  0  0
 26 57  1  0  0  0  0
 26 58  1  0  0  0  0
 28 59  1  0  0  0  0
 30 60  1  0  0  0  0
 32 61  1  0  0  0  0
 32 62  1  0  0  0  0
M  CHG  1  24   1
M  END
> <BIOSOLVEIT.HYDE_ESTIMATED_AFFINITY_LOWER_BOUNDARY [nM]>
2411461.950204

> <BIOSOLVEIT.HYDE_ESTIMATED_AFFINITY_UPPER_BOUNDARY [nM]>
239593002.444198

> <BIOSOLVEIT.HYDE_LIGAND_EFFICIENCY range: ++, +, 0, -, -->
--

> <BIOSOLVEIT.HYDE_LIGAND_LIPOPHILIC_EFFICIENCY range: ++, +, 0, -, -->
--

> <BIOSOLVEIT.INTER_CLASH range: red, yellow, green>
green

> <BIOSOLVEIT.INTRA_CLASH range: red, yellow, green>
green

> <BIOSOLVEIT.LOGP>
2.56868

> <BIOSOLVEIT.MOLECULAR WEIGHT>
454.551

> <BIOSOLVEIT.MOLECULE_CHECKSUM>
LTkuMjQxOTc7MC4yNzE4MjM=

> <BIOSOLVEIT.TORSION_QUALITY range: red, yellow, green, not rotatable>
not rotatable

> <BIOSOLVEIT.TPSA>
87.76

$$$$
1LD7_U66_3
foHydescor03192112173D 1   1.00000     0.00000     0
Hydescorer 1.1.0 fol007
 62 67  0  0  0  0            999 V2000
   16.7051  134.2898   -8.7967 N   0  0  0  0  0  0  0  0  0  0  0  0
   16.0629  134.2533   -7.8346 C   0  0  0  0  0  0  0  0  0  0  0  0
   15.2444  134.2096   -6.6067 C   0  0  2  0  0  0  0  0  0  0  0  0
   14.0713  135.2052   -6.7287 C   0  0  0  0  0  0  0  0  0  0  0  0
   14.5893  136.6102   -6.6060 C   0  0  0  0  0  0  0  0  0  0  0  0
   15.4743  136.8973   -5.6366 C   0  0  0  0  0  0  0  0  0  0  0  0
   15.8214  135.8171   -4.6378 C   0  0  0  0  0  0  0  0  0  0  0  0
   16.1328  134.4683   -5.3401 C   0  0  1  0  0  0  0  0  0  0  0  0
   15.9184  133.3942   -4.4209 O   0  0  0  0  0  0  0  0  0  0  0  0
   16.7279  133.0524   -3.3255 C   0  0  0  0  0  0  0  0  0  0  0  0
   16.2673  132.0405   -2.4792 C   0  0  0  0  0  0  0  0  0  0  0  0
   17.0175  131.6337   -1.3776 C   0  0  0  0  0  0  0  0  0  0  0  0
   18.2507  132.2364   -1.1027 C   0  0  0  0  0  0  0  0  0  0  0  0
   19.0034  131.8188    0.0045 C   0  0  0  0  0  0  0  0  0  0  0  0
   20.2315  132.4156    0.2832 C   0  0  0  0  0  0  0  0  0  0  0  0
   20.7190  133.4321   -0.5368 C   0  0  0  0  0  0  0  0  0  0  0  0
   19.9879  133.8650   -1.6545 C   0  0  0  0  0  0  0  0  0  0  0  0
   18.7386  133.2685   -1.9464 C   0  0  0  0  0  0  0  0  0  0  0  0
   17.9688  133.6666   -3.0584 C   0  0  0  0  0  0  0  0  0  0  0  0
   20.5122  134.9379   -2.4528 N   0  0  0  0  0  0  0  0  0  0  0  0
   21.8029  134.8452   -3.1262 C   0  0  0  0  0  0  0  0  0  0  0  0
   22.5257  136.1811   -2.8715 C   0  0  0  0  0  0  0  0  0  0  0  0
   21.4580  137.1640   -2.3470 C   0  0  1  0  0  0  0  0  0  0  0  0
   21.1705  138.2941   -3.2603 N   0  3  0  0  0  0  0  0  0  0  0  0
   20.7207  137.9505   -4.6295 C   0  0  0  0  0  0  0  0  0  0  0  0
   19.1995  137.7214   -4.7286 C   0  0  0  0  0  0  0  0  0  0  0  0
   18.6912  137.8187   -6.1483 C   0  0  0  0  0  0  0  0  0  0  0  0
   19.4175  137.5885   -7.3028 C   0  0  0  0  0  0  0  0  0  0  0  0
   18.6121  137.7147   -8.3754 N   0  0  0  0  0  0  0  0  0  0  0  0
   17.4030  138.0070   -7.8553 C   0  0  0  0  0  0  0  0  0  0  0  0
   17.4144  138.0697   -6.5077 N   0  0  0  0  0  0  0  0  0  0  0  0
   16.2289  138.2014   -5.6562 C   0  0  0  0  0  0  0  0  0  0  0  0
   20.2893  136.2895   -2.0914 C   0  0  0  0  0  0  0  0  0  0  0  0
   19.2326  136.6813   -1.5268 O   0  0  0  0  0  0  0  0  0  0  0  0
   14.8590  133.2902   -6.5280 H   0  0  0  0  0  0  0  0  0  0  0  0
   13.4086  135.0299   -6.0006 H   0  0  0  0  0  0  0  0  0  0  0  0
   13.6279  135.0901   -7.6176 H   0  0  0  0  0  0  0  0  0  0  0  0
   14.2798  137.3216   -7.2370 H   0  0  0  0  0  0  0  0  0  0  0  0
   15.0481  135.6887   -4.0168 H   0  0  0  0  0  0  0  0  0  0  0  0
   16.6244  136.1040   -4.1153 H   0  0  0  0  0  0  0  0  0  0  0  0
   17.0937  134.4658   -5.6169 H   0  0  0  0  0  0  0  0  0  0  0  0
   15.3880  131.6026   -2.6664 H   0  0  0  0  0  0  0  0  0  0  0  0
   16.6736  130.9085   -0.7812 H   0  0  0  0  0  0  0  0  0  0  0  0
   18.6577  131.0904    0.5959 H   0  0  0  0  0  0  0  0  0  0  0  0
   20.7644  132.1139    1.0737 H   0  0  0  0  0  0  0  0  0  0  0  0
   21.5992  133.8576   -0.3266 H   0  0  0  0  0  0  0  0  0  0  0  0
   18.3051  134.3895   -3.6618 H   0  0  0  0  0  0  0  0  0  0  0  0
   21.6713  134.7052   -4.1075 H   0  0  0  0  0  0  0  0  0  0  0  0
   22.3354  134.0870   -2.7498 H   0  0  0  0  0  0  0  0  0  0  0  0
   22.9247  136.5256   -3.7212 H   0  0  0  0  0  0  0  0  0  0  0  0
   23.2473  136.0590   -2.1899 H   0  0  0  0  0  0  0  0  0  0  0  0
   21.7720  137.5356   -1.4733 H   0  0  0  0  0  0  0  0  0  0  0  0
   22.0071  138.8355   -3.3439 H   0  0  0  0  0  0  0  0  0  0  0  0
   20.4547  138.8499   -2.8375 H   0  0  0  0  0  0  0  0  0  0  0  0
   21.1876  137.1143   -4.9171 H   0  0  0  0  0  0  0  0  0  0  0  0
   20.9701  138.6995   -5.2435 H   0  0  0  0  0  0  0  0  0  0  0  0
   18.7344  138.4109   -4.1734 H   0  0  0  0  0  0  0  0  0  0  0  0
   18.9886  136.8104   -4.3741 H   0  0  0  0  0  0  0  0  0  0  0  0
   20.3911  137.3629   -7.3363 H   0  0  0  0  0  0  0  0  0  0  0  0
   16.5850  138.1610   -8.4094 H   0  0  0  0  0  0  0  0  0  0  0  0
   15.6379  138.9227   -6.0176 H   0  0  0  0  0  0  0  0  0  0  0  0
   16.5114  138.4366   -4.7263 H   0  0  0  0  0  0  0  0  0  0  0  0
  1  2  3  0  0  0  0
  2  3  1  0  0  0  0
  3  4  1  0  0  0  0
  4  5  1  0  0  0  0
  5  6  2  0  0  0  0
  6  7  1  0  0  0  0
  7  8  1  0  0  0  0
  8  9  1  0  0  0  0
  9 10  1  0  0  0  0
 10 11  2  0  0  0  0
 11 12  1  0  0  0  0
 12 13  2  0  0  0  0
 13 14  1  0  0  0  0
 14 15  2  0  0  0  0
 15 16  1  0  0  0  0
 16 17  2  0  0  0  0
 17 18  1  0  0  0  0
 18 19  2  0  0  0  0
 17 20  1  0  0  0  0
 20 21  1  0  0  0  0
 21 22  1  0  0  0  0
 22 23  1  0  0  0  0
 23 24  1  0  0  0  0
 24 25  1  0  0  0  0
 25 26  1  0  0  0  0
 26 27  1  0  0  0  0
 27 28  2  0  0  0  0
 28 29  1  0  0  0  0
 29 30  2  0  0  0  0
 30 31  1  0  0  0  0
 31 32  1  0  0  0  0
 23 33  1  0  0  0  0
 33 34  2  0  0  0  0
  8  3  1  0  0  0  0
 19 10  1  0  0  0  0
 33 20  1  0  0  0  0
 32  6  1  0  0  0  0
 18 13  1  0  0  0  0
 31 27  1  0  0  0  0
  3 35  1  0  0  0  0
  4 36  1  0  0  0  0
  4 37  1  0  0  0  0
  5 38  1  0  0  0  0
  7 39  1  0  0  0  0
  7 40  1  0  0  0  0
  8 41  1  0  0  0  0
 11 42  1  0  0  0  0
 12 43  1  0  0  0  0
 14 44  1  0  0  0  0
 15 45  1  0  0  0  0
 16 46  1  0  0  0  0
 19 47  1  0  0  0  0
 21 48  1  0  0  0  0
 21 49  1  0  0  0  0
 22 50  1  0  0  0  0
 22 51  1  0  0  0  0
 23 52  1  0  0  0  0
 24 53  1  0  0  0  0
 24 54  1  0  0  0  0
 25 55  1  0  0  0  0
 25 56  1  0  0  0  0
 26 57  1  0  0  0  0
 26 58  1  0  0  0  0
 28 59  1  0  0  0  0
 30 60  1  0  0  0  0
 32 61  1  0  0  0  0
 32 62  1  0  0  0  0
M  CHG  1  24   1
M  END
> <BIOSOLVEIT.HYDE_ESTIMATED_AFFINITY_LOWER_BOUNDARY [nM]>
8051941.179783

> <BIOSOLVEIT.HYDE_ESTIMATED_AFFINITY_UPPER_BOUNDARY [nM]>
800007963.055323

> <BIOSOLVEIT.HYDE_LIGAND_EFFICIENCY range: ++, +, 0, -, -->
--

> <BIOSOLVEIT.HYDE_LIGAND_LIPOPHILIC_EFFICIENCY range: ++, +, 0, -, -->
--

> <BIOSOLVEIT.INTER_CLASH range: red, yellow, green>
green

> <BIOSOLVEIT.INTRA_CLASH range: red, yellow, green>
green

> <BIOSOLVEIT.LOGP>
2.56868

> <BIOSOLVEIT.MOLECULAR WEIGHT>
454.551

> <BIOSOLVEIT.MOLECULE_CHECKSUM>
LTYuMjUzMTQ7MC4xODM5MTY=

> <BIOSOLVEIT.TORSION_QUALITY range: red, yellow, green, not rotatable>
not rotatable

> <BIOSOLVEIT.TPSA>
87.76

$$$$
1S63_778_1
foHydescor03192112173D 1   1.00000     0.00000     0
Hydescorer 1.1.0 fol007
 50 53  0  0  0  0            999 V2000
   18.7656  133.0125    3.5724 N   0  0  0  0  0  0  0  0  0  0  0  0
   18.8527  133.2064    2.4349 C   0  0  0  0  0  0  0  0  0  0  0  0
   18.9644  133.4611    0.9407 C   0  0  0  0  0  0  0  0  0  0  0  0
   19.0562  134.7697    0.4767 C   0  0  0  0  0  0  0  0  0  0  0  0
   19.1597  135.0179   -0.8878 C   0  0  0  0  0  0  0  0  0  0  0  0
   19.1692  133.9455   -1.7738 C   0  0  0  0  0  0  0  0  0  0  0  0
   19.2790  134.2002   -3.2529 C   0  0  0  0  0  0  0  0  0  0  0  0
   20.6240  134.6774   -3.6070 N   0  0  0  0  0  0  0  0  0  0  0  0
   21.7022  133.8820   -3.8646 C   0  0  0  0  0  0  0  0  0  0  0  0
   22.7208  134.6651   -4.1445 N   0  0  0  0  0  0  0  0  0  0  0  0
   22.3111  135.9664   -4.0701 C   0  0  0  0  0  0  0  0  0  0  0  0
   20.9896  135.9828   -3.7312 C   0  0  0  0  0  0  0  0  0  0  0  0
   20.1173  137.2003   -3.5409 C   0  0  0  0  0  0  0  0  0  0  0  0
   19.4001  137.5652   -4.7705 N   0  3  2  0  0  0  0  0  0  0  0  0
   18.0052  137.0781   -4.7455 C   0  0  0  0  0  0  0  0  0  0  0  0
   17.5854  136.2198   -5.9384 C   0  0  0  0  0  0  0  0  0  0  0  0
   18.1334  136.7030   -7.2144 N   0  0  0  0  0  0  0  0  0  0  0  0
   17.3587  136.6917   -8.3810 C   0  0  0  0  0  0  0  0  0  0  0  0
   17.5571  135.6880   -9.3237 C   0  0  0  0  0  0  0  0  0  0  0  0
   16.7837  135.6808  -10.4799 C   0  0  0  0  0  0  0  0  0  0  0  0
   15.8216  136.6606  -10.6998 C   0  0  0  0  0  0  0  0  0  0  0  0
   15.6395  137.6548   -9.7439 C   0  0  0  0  0  0  0  0  0  0  0  0
   14.4130  138.9175  -10.0063 Cl  0  0  0  0  0  0  0  0  0  0  0  0
   16.4017  137.6811   -8.5807 C   0  0  0  0  0  0  0  0  0  0  0  0
   19.4540  137.1731   -7.2207 C   0  0  0  0  0  0  0  0  0  0  0  0
   19.9640  137.5800   -8.2540 O   0  0  0  0  0  0  0  0  0  0  0  0
   20.2373  137.1678   -5.9146 C   0  0  0  0  0  0  0  0  0  0  0  0
   19.0769  132.6361   -1.3136 C   0  0  0  0  0  0  0  0  0  0  0  0
   18.9740  132.3908    0.0521 C   0  0  0  0  0  0  0  0  0  0  0  0
   19.0478  135.5316    1.1244 H   0  0  0  0  0  0  0  0  0  0  0  0
   19.2264  135.9559   -1.2279 H   0  0  0  0  0  0  0  0  0  0  0  0
   18.6067  134.8920   -3.5163 H   0  0  0  0  0  0  0  0  0  0  0  0
   19.0933  133.3502   -3.7458 H   0  0  0  0  0  0  0  0  0  0  0  0
   21.7155  132.8823   -3.8441 H   0  0  0  0  0  0  0  0  0  0  0  0
   22.8826  136.7701   -4.2359 H   0  0  0  0  0  0  0  0  0  0  0  0
   20.6934  137.9693   -3.2636 H   0  0  0  0  0  0  0  0  0  0  0  0
   19.4486  137.0087   -2.8225 H   0  0  0  0  0  0  0  0  0  0  0  0
   19.3525  138.5639   -4.7862 H   0  0  0  0  0  0  0  0  0  0  0  0
   17.4015  137.8746   -4.7117 H   0  0  0  0  0  0  0  0  0  0  0  0
   17.8843  136.5328   -3.9160 H   0  0  0  0  0  0  0  0  0  0  0  0
   16.5873  136.2236   -5.9982 H   0  0  0  0  0  0  0  0  0  0  0  0
   17.9067  135.2849   -5.7871 H   0  0  0  0  0  0  0  0  0  0  0  0
   18.2473  134.9804   -9.1721 H   0  0  0  0  0  0  0  0  0  0  0  0
   16.9213  134.9621  -11.1615 H   0  0  0  0  0  0  0  0  0  0  0  0
   15.2687  136.6506  -11.5330 H   0  0  0  0  0  0  0  0  0  0  0  0
   16.2639  138.3996   -7.8991 H   0  0  0  0  0  0  0  0  0  0  0  0
   21.0017  137.8077   -5.9935 H   0  0  0  0  0  0  0  0  0  0  0  0
   20.5896  136.2460   -5.7527 H   0  0  0  0  0  0  0  0  0  0  0  0
   19.0845  131.8744   -1.9615 H   0  0  0  0  0  0  0  0  0  0  0  0
   18.9075  131.4527    0.3922 H   0  0  0  0  0  0  0  0  0  0  0  0
  1  2  3  0  0  0  0
  2  3  1  0  0  0  0
  3  4  2  0  0  0  0
  4  5  1  0  0  0  0
  5  6  2  0  0  0  0
  6  7  1  0  0  0  0
  7  8  1  0  0  0  0
  8  9  1  0  0  0  0
  9 10  2  0  0  0  0
 10 11  1  0  0  0  0
 11 12  2  0  0  0  0
 12 13  1  0  0  0  0
 13 14  1  0  0  0  0
 14 15  1  0  0  0  0
 15 16  1  0  0  0  0
 16 17  1  0  0  0  0
 17 18  1  0  0  0  0
 18 19  2  0  0  0  0
 19 20  1  0  0  0  0
 20 21  2  0  0  0  0
 21 22  1  0  0  0  0
 22 23  1  0  0  0  0
 22 24  2  0  0  0  0
 17 25  1  0  0  0  0
 25 26  2  0  0  0  0
 25 27  1  0  0  0  0
  6 28  1  0  0  0  0
 28 29  2  0  0  0  0
 29  3  1  0  0  0  0
 12  8  1  0  0  0  0
 27 14  1  0  0  0  0
 24 18  1  0  0  0  0
  4 30  1  0  0  0  0
  5 31  1  0  0  0  0
  7 32  1  0  0  0  0
  7 33  1  0  0  0  0
  9 34  1  0  0  0  0
 11 35  1  0  0  0  0
 13 36  1  0  0  0  0
 13 37  1  0  0  0  0
 14 38  1  0  0  0  0
 15 39  1  0  0  0  0
 15 40  1  0  0  0  0
 16 41  1  0  0  0  0
 16 42  1  0  0  0  0
 19 43  1  0  0  0  0
 20 44  1  0  0  0  0
 21 45  1  0  0  0  0
 24 46  1  0  0  0  0
 27 47  1  0  0  0  0
 27 48  1  0  0  0  0
 28 49  1  0  0  0  0
 29 50  1  0  0  0  0
M  CHG  1  14   1
M  END
> <BIOSOLVEIT.HYDE_ESTIMATED_AFFINITY_LOWER_BOUNDARY [nM]>
13843.889013

> <BIOSOLVEIT.HYDE_ESTIMATED_AFFINITY_UPPER_BOUNDARY [nM]>
1375472.224945

> <BIOSOLVEIT.HYDE_LIGAND_EFFICIENCY range: ++, +, 0, -, -->
--

> <BIOSOLVEIT.HYDE_LIGAND_LIPOPHILIC_EFFICIENCY range: ++, +, 0, -, -->
--

> <BIOSOLVEIT.INTER_CLASH range: red, yellow, green>
green

> <BIOSOLVEIT.INTRA_CLASH range: red, yellow, green>
yellow

> <BIOSOLVEIT.LOGP>
1.88818

> <BIOSOLVEIT.MOLECULAR WEIGHT>
406.895

> <BIOSOLVEIT.MOLECULE_CHECKSUM>
LTIyLjAzMzc7MC43NTk3ODQ=

> <BIOSOLVEIT.TORSION_QUALITY range: red, yellow, green, not rotatable>
green

> <BIOSOLVEIT.TPSA>
66.36

$$$$
1S63_778_2
foHydescor03192112173D 1   1.00000     0.00000     0
Hydescorer 1.1.0 fol007
 50 53  0  0  0  0            999 V2000
   18.9137  132.9285    3.5462 N   0  0  0  0  0  0  0  0  0  0  0  0
   19.0164  133.0749    2.4031 C   0  0  0  0  0  0  0  0  0  0  0  0
   19.1421  133.2553    0.9807 C   0  0  0  0  0  0  0  0  0  0  0  0
   18.4295  134.2744    0.3567 C   0  0  0  0  0  0  0  0  0  0  0  0
   18.5418  134.4611   -1.0169 C   0  0  0  0  0  0  0  0  0  0  0  0
   19.3708  133.6189   -1.7506 C   0  0  0  0  0  0  0  0  0  0  0  0
   19.5015  133.8108   -3.2528 C   0  0  0  0  0  0  0  0  0  0  0  0
   20.7836  134.4351   -3.5932 N   0  0  0  0  0  0  0  0  0  0  0  0
   21.9426  133.7657   -3.8582 C   0  0  0  0  0  0  0  0  0  0  0  0
   22.8705  134.6592   -4.1222 N   0  0  0  0  0  0  0  0  0  0  0  0
   22.3215  135.9070   -4.0302 C   0  0  0  0  0  0  0  0  0  0  0  0
   21.0053  135.7742   -3.6963 C   0  0  0  0  0  0  0  0  0  0  0  0
   19.9985  136.8941   -3.4902 C   0  0  0  0  0  0  0  0  0  0  0  0
   19.1733  137.1341   -4.7007 N   0  3  2  0  0  0  0  0  0  0  0  0
   18.1817  136.0620   -4.8735 C   0  0  0  0  0  0  0  0  0  0  0  0
   17.2500  136.4450   -6.0167 C   0  0  0  0  0  0  0  0  0  0  0  0
   17.9885  136.8184   -7.2325 N   0  0  0  0  0  0  0  0  0  0  0  0
   17.3092  136.8121   -8.4543 C   0  0  0  0  0  0  0  0  0  0  0  0
   17.6426  135.8647   -9.4170 C   0  0  0  0  0  0  0  0  0  0  0  0
   16.9622  135.8620  -10.6304 C   0  0  0  0  0  0  0  0  0  0  0  0
   15.9597  136.7910  -10.8873 C   0  0  0  0  0  0  0  0  0  0  0  0
   15.6421  137.7293   -9.9105 C   0  0  0  0  0  0  0  0  0  0  0  0
   14.3618  138.9264  -10.2196 Cl  0  0  0  0  0  0  0  0  0  0  0  0
   16.3096  137.7500   -8.6903 C   0  0  0  0  0  0  0  0  0  0  0  0
   19.3447  137.1717   -7.1837 C   0  0  0  0  0  0  0  0  0  0  0  0
   19.9564  137.5255   -8.1764 O   0  0  0  0  0  0  0  0  0  0  0  0
   20.0845  137.1157   -5.8523 C   0  0  0  0  0  0  0  0  0  0  0  0
   20.0843  132.5986   -1.1303 C   0  0  0  0  0  0  0  0  0  0  0  0
   19.9704  132.4146    0.2442 C   0  0  0  0  0  0  0  0  0  0  0  0
   17.8367  134.8726    0.8959 H   0  0  0  0  0  0  0  0  0  0  0  0
   18.0326  135.1919   -1.4716 H   0  0  0  0  0  0  0  0  0  0  0  0
   18.7572  134.3966   -3.5736 H   0  0  0  0  0  0  0  0  0  0  0  0
   19.4420  132.9198   -3.7028 H   0  0  0  0  0  0  0  0  0  0  0  0
   22.0647  132.7732   -3.8527 H   0  0  0  0  0  0  0  0  0  0  0  0
   22.8025  136.7705   -4.1817 H   0  0  0  0  0  0  0  0  0  0  0  0
   20.4922  137.7340   -3.2650 H   0  0  0  0  0  0  0  0  0  0  0  0
   19.3945  136.6490   -2.7319 H   0  0  0  0  0  0  0  0  0  0  0  0
   18.7156  138.0210   -4.6364 H   0  0  0  0  0  0  0  0  0  0  0  0
   17.6543  135.9513   -4.0311 H   0  0  0  0  0  0  0  0  0  0  0  0
   18.6470  135.2039   -5.0906 H   0  0  0  0  0  0  0  0  0  0  0  0
   16.6893  137.2214   -5.7290 H   0  0  0  0  0  0  0  0  0  0  0  0
   16.6588  135.6659   -6.2253 H   0  0  0  0  0  0  0  0  0  0  0  0
   18.3624  135.1938   -9.2388 H   0  0  0  0  0  0  0  0  0  0  0  0
   17.1970  135.1837  -11.3266 H   0  0  0  0  0  0  0  0  0  0  0  0
   15.4741  136.7845  -11.7615 H   0  0  0  0  0  0  0  0  0  0  0  0
   16.0746  138.4282   -7.9941 H   0  0  0  0  0  0  0  0  0  0  0  0
   20.6945  137.9057   -5.7910 H   0  0  0  0  0  0  0  0  0  0  0  0
   20.6242  136.2745   -5.8206 H   0  0  0  0  0  0  0  0  0  0  0  0
   20.6764  131.9999   -1.6697 H   0  0  0  0  0  0  0  0  0  0  0  0
   20.4799  131.6840    0.6989 H   0  0  0  0  0  0  0  0  0  0  0  0
  1  2  3  0  0  0  0
  2  3  1  0  0  0  0
  3  4  2  0  0  0  0
  4  5  1  0  0  0  0
  5  6  2  0  0  0  0
  6  7  1  0  0  0  0
  7  8  1  0  0  0  0
  8  9  1  0  0  0  0
  9 10  2  0  0  0  0
 10 11  1  0  0  0  0
 11 12  2  0  0  0  0
 12 13  1  0  0  0  0
 13 14  1  0  0  0  0
 14 15  1  0  0  0  0
 15 16  1  0  0  0  0
 16 17  1  0  0  0  0
 17 18  1  0  0  0  0
 18 19  2  0  0  0  0
 19 20  1  0  0  0  0
 20 21  2  0  0  0  0
 21 22  1  0  0  0  0
 22 23  1  0  0  0  0
 22 24  2  0  0  0  0
 17 25  1  0  0  0  0
 25 26  2  0  0  0  0
 25 27  1  0  0  0  0
  6 28  1  0  0  0  0
 28 29  2  0  0  0  0
 29  3  1  0  0  0  0
 12  8  1  0  0  0  0
 27 14  1  0  0  0  0
 24 18  1  0  0  0  0
  4 30  1  0  0  0  0
  5 31  1  0  0  0  0
  7 32  1  0  0  0  0
  7 33  1  0  0  0  0
  9 34  1  0  0  0  0
 11 35  1  0  0  0  0
 13 36  1  0  0  0  0
 13 37  1  0  0  0  0
 14 38  1  0  0  0  0
 15 39  1  0  0  0  0
 15 40  1  0  0  0  0
 16 41  1  0  0  0  0
 16 42  1  0  0  0  0
 19 43  1  0  0  0  0
 20 44  1  0  0  0  0
 21 45  1  0  0  0  0
 24 46  1  0  0  0  0
 27 47  1  0  0  0  0
 27 48  1  0  0  0  0
 28 49  1  0  0  0  0
 29 50  1  0  0  0  0
M  CHG  1  14   1
M  END
> <BIOSOLVEIT.HYDE_ESTIMATED_AFFINITY_LOWER_BOUNDARY [nM]>
5419.111123

> <BIOSOLVEIT.HYDE_ESTIMATED_AFFINITY_UPPER_BOUNDARY [nM]>
538420.730402

> <BIOSOLVEIT.HYDE_LIGAND_EFFICIENCY range: ++, +, 0, -, -->
-

> <BIOSOLVEIT.HYDE_LIGAND_LIPOPHILIC_EFFICIENCY range: ++, +, 0, -, -->
-

> <BIOSOLVEIT.INTER_CLASH range: red, yellow, green>
green

> <BIOSOLVEIT.INTRA_CLASH range: red, yellow, green>
green

> <BIOSOLVEIT.LOGP>
1.88818

> <BIOSOLVEIT.MOLECULAR WEIGHT>
406.895

> <BIOSOLVEIT.MOLECULE_CHECKSUM>
LTI0LjM1ODg7MC44Mzk5NTg=

> <BIOSOLVEIT.TORSION_QUALITY range: red, yellow, green, not rotatable>
green

> <BIOSOLVEIT.TPSA>
66.36

$$$$
1S63_778_3
foHydescor03192112173D 1   1.00000     0.00000     0
Hydescorer 1.1.0 fol007
 50 53  0  0  0  0            999 V2000
   20.7881  134.1383    4.3056 N   0  0  0  0  0  0  0  0  0  0  0  0
   20.6229  134.1038    3.1610 C   0  0  0  0  0  0  0  0  0  0  0  0
   20.4153  134.0595    1.7373 C   0  0  0  0  0  0  0  0  0  0  0  0
   19.6849  135.0718    1.1227 C   0  0  0  0  0  0  0  0  0  0  0  0
   19.4769  135.0426   -0.2521 C   0  0  0  0  0  0  0  0  0  0  0  0
   20.0062  133.9932   -0.9963 C   0  0  0  0  0  0  0  0  0  0  0  0
   19.7851  133.9483   -2.4995 C   0  0  0  0  0  0  0  0  0  0  0  0
   20.9239  134.5306   -3.2158 N   0  0  0  0  0  0  0  0  0  0  0  0
   22.0492  133.8567   -3.5916 C   0  0  0  0  0  0  0  0  0  0  0  0
   22.8387  134.7074   -4.2095 N   0  0  0  0  0  0  0  0  0  0  0  0
   22.2333  135.9319   -4.2376 C   0  0  0  0  0  0  0  0  0  0  0  0
   21.0250  135.8289   -3.6123 C   0  0  0  0  0  0  0  0  0  0  0  0
   20.0047  136.9370   -3.4096 C   0  0  0  0  0  0  0  0  0  0  0  0
   19.1097  137.0948   -4.5834 N   0  3  2  0  0  0  0  0  0  0  0  0
   18.3788  135.8468   -4.8497 C   0  0  0  0  0  0  0  0  0  0  0  0
   17.3500  136.1129   -5.9418 C   0  0  0  0  0  0  0  0  0  0  0  0
   17.9479  136.7539   -7.1227 N   0  0  0  0  0  0  0  0  0  0  0  0
   17.2497  136.7068   -8.3328 C   0  0  0  0  0  0  0  0  0  0  0  0
   17.5296  135.6940   -9.2446 C   0  0  0  0  0  0  0  0  0  0  0  0
   16.8308  135.6509  -10.4465 C   0  0  0  0  0  0  0  0  0  0  0  0
   15.8624  136.6042  -10.7424 C   0  0  0  0  0  0  0  0  0  0  0  0
   15.5982  137.6082   -9.8164 C   0  0  0  0  0  0  0  0  0  0  0  0
   14.3623  138.8374  -10.1758 Cl  0  0  0  0  0  0  0  0  0  0  0  0
   16.2851  137.6702   -8.6084 C   0  0  0  0  0  0  0  0  0  0  0  0
   19.1913  137.3987   -7.0526 C   0  0  0  0  0  0  0  0  0  0  0  0
   19.6771  137.9716   -8.0121 O   0  0  0  0  0  0  0  0  0  0  0  0
   19.9656  137.3890   -5.7398 C   0  0  0  0  0  0  0  0  0  0  0  0
   20.7364  132.9793   -0.3851 C   0  0  0  0  0  0  0  0  0  0  0  0
   20.9433  133.0115    0.9904 C   0  0  0  0  0  0  0  0  0  0  0  0
   19.3096  135.8203    1.6695 H   0  0  0  0  0  0  0  0  0  0  0  0
   18.9533  135.7671   -0.7002 H   0  0  0  0  0  0  0  0  0  0  0  0
   18.9588  134.4648   -2.7240 H   0  0  0  0  0  0  0  0  0  0  0  0
   19.6712  132.9967   -2.7850 H   0  0  0  0  0  0  0  0  0  0  0  0
   22.2395  132.8890   -3.4266 H   0  0  0  0  0  0  0  0  0  0  0  0
   22.6115  136.7622   -4.6469 H   0  0  0  0  0  0  0  0  0  0  0  0
   20.4901  137.7978   -3.2563 H   0  0  0  0  0  0  0  0  0  0  0  0
   19.4487  136.7202   -2.6072 H   0  0  0  0  0  0  0  0  0  0  0  0
   18.4671  137.8455   -4.4294 H   0  0  0  0  0  0  0  0  0  0  0  0
   17.9160  135.5427   -4.0171 H   0  0  0  0  0  0  0  0  0  0  0  0
   19.0176  135.1399   -5.1532 H   0  0  0  0  0  0  0  0  0  0  0  0
   16.6387  136.7126   -5.5751 H   0  0  0  0  0  0  0  0  0  0  0  0
   16.9423  135.2430   -6.2192 H   0  0  0  0  0  0  0  0  0  0  0  0
   18.2247  135.0053   -9.0384 H   0  0  0  0  0  0  0  0  0  0  0  0
   17.0272  134.9254  -11.1061 H   0  0  0  0  0  0  0  0  0  0  0  0
   15.3633  136.5685  -11.6082 H   0  0  0  0  0  0  0  0  0  0  0  0
   16.0886  138.3957   -7.9488 H   0  0  0  0  0  0  0  0  0  0  0  0
   20.3847  138.2873   -5.6082 H   0  0  0  0  0  0  0  0  0  0  0  0
   20.6809  136.6923   -5.7946 H   0  0  0  0  0  0  0  0  0  0  0  0
   21.1110  132.2305   -0.9319 H   0  0  0  0  0  0  0  0  0  0  0  0
   21.4673  132.2871    1.4385 H   0  0  0  0  0  0  0  0  0  0  0  0
  1  2  3  0  0  0  0
  2  3  1  0  0  0  0
  3  4  2  0  0  0  0
  4  5  1  0  0  0  0
  5  6  2  0  0  0  0
  6  7  1  0  0  0  0
  7  8  1  0  0  0  0
  8  9  1  0  0  0  0
  9 10  2  0  0  0  0
 10 11  1  0  0  0  0
 11 12  2  0  0  0  0
 12 13  1  0  0  0  0
 13 14  1  0  0  0  0
 14 15  1  0  0  0  0
 15 16  1  0  0  0  0
 16 17  1  0  0  0  0
 17 18  1  0  0  0  0
 18 19  2  0  0  0  0
 19 20  1  0  0  0  0
 20 21  2  0  0  0  0
 21 22  1  0  0  0  0
 22 23  1  0  0  0  0
 22 24  2  0  0  0  0
 17 25  1  0  0  0  0
 25 26  2  0  0  0  0
 25 27  1  0  0  0  0
  6 28  1  0  0  0  0
 28 29  2  0  0  0  0
 29  3  1  0  0  0  0
 12  8  1  0  0  0  0
 27 14  1  0  0  0  0
 24 18  1  0  0  0  0
  4 30  1  0  0  0  0
  5 31  1  0  0  0  0
  7 32  1  0  0  0  0
  7 33  1  0  0  0  0
  9 34  1  0  0  0  0
 11 35  1  0  0  0  0
 13 36  1  0  0  0  0
 13 37  1  0  0  0  0
 14 38  1  0  0  0  0
 15 39  1  0  0  0  0
 15 40  1  0  0  0  0
 16 41  1  0  0  0  0
 16 42  1  0  0  0  0
 19 43  1  0  0  0  0
 20 44  1  0  0  0  0
 21 45  1  0  0  0  0
 24 46  1  0  0  0  0
 27 47  1  0  0  0  0
 27 48  1  0  0  0  0
 28 49  1  0  0  0  0
 29 50  1  0  0  0  0
M  CHG  1  14   1
M  END
> <BIOSOLVEIT.HYDE_ESTIMATED_AFFINITY_LOWER_BOUNDARY [nM]>
9018299366.982576

> <BIOSOLVEIT.HYDE_ESTIMATED_AFFINITY_UPPER_BOUNDARY [nM]>
896021362515.415894

> <BIOSOLVEIT.HYDE_LIGAND_EFFICIENCY range: ++, +, 0, -, -->
--

> <BIOSOLVEIT.HYDE_LIGAND_LIPOPHILIC_EFFICIENCY range: ++, +, 0, -, -->
--

> <BIOSOLVEIT.INTER_CLASH range: red, yellow, green>
green

> <BIOSOLVEIT.INTRA_CLASH range: red, yellow, green>
green

> <BIOSOLVEIT.LOGP>
1.88818

> <BIOSOLVEIT.MOLECULAR WEIGHT>
406.895

> <BIOSOLVEIT.MOLECULE_CHECKSUM>
MTEuMTUxOTsw

> <BIOSOLVEIT.TORSION_QUALITY range: red, yellow, green, not rotatable>
green

> <BIOSOLVEIT.TPSA>
66.36

$$$$
3E37_ED5_1
foHydescor03192112173D 1   1.00000     0.00000     0
Hydescorer 1.1.0 fol007
 85 88  0  0  0  0            999 V2000
   20.5261  137.3921   -2.8948 C   0  0  0  0  0  0  0  0  0  0  0  0
   20.4005  138.7203   -3.6232 C   0  0  0  0  0  0  0  0  0  0  0  0
   20.4463  139.8908   -2.8726 C   0  0  0  0  0  0  0  0  0  0  0  0
   20.3333  141.1187   -3.5156 C   0  0  0  0  0  0  0  0  0  0  0  0
   20.1762  141.1683   -4.8968 C   0  0  0  0  0  0  0  0  0  0  0  0
   20.1299  139.9989   -5.6489 C   0  0  0  0  0  0  0  0  0  0  0  0
   20.2426  138.7704   -5.0052 C   0  0  0  0  0  0  0  0  0  0  0  0
   20.1816  137.2914   -5.9794 S   0  0  0  0  0  0  0  0  0  0  0  0
   20.4462  137.6457   -7.4171 O   0  0  0  0  0  0  0  0  0  0  0  0
   21.2529  136.3538   -5.4949 O   0  0  0  0  0  0  0  0  0  0  0  0
   18.5904  136.5647   -5.8280 N   0  0  0  0  0  0  0  0  0  0  0  0
   18.6512  135.3142   -5.0457 C   0  0  0  0  0  0  0  0  0  0  0  0
   17.8806  134.1668   -5.7202 C   0  0  0  0  0  0  0  0  0  0  0  0
   17.7449  133.0348   -4.7942 N   0  0  0  0  0  0  0  0  0  0  0  0
   18.8520  132.1010   -4.5628 C   0  0  0  0  0  0  0  0  0  0  0  0
   19.7183  132.5901   -3.4395 C   0  0  0  0  0  0  0  0  0  0  0  0
   20.9606  133.1380   -3.5698 C   0  0  0  0  0  0  0  0  0  0  0  0
   21.3925  133.4459   -2.3138 N   0  0  0  0  0  0  0  0  0  0  0  0
   20.4592  133.1026   -1.4520 C   0  0  0  0  0  0  0  0  0  0  0  0
   19.3988  132.5720   -2.1184 N   0  0  0  0  0  0  0  0  0  0  0  0
   18.1510  132.0670   -1.5265 C   0  0  0  0  0  0  0  0  0  0  0  0
   16.4907  132.7767   -4.2279 C   0  0  0  0  0  0  0  0  0  0  0  0
   16.2135  131.5066   -3.7324 C   0  0  0  0  0  0  0  0  0  0  0  0
   14.9715  131.2363   -3.1679 C   0  0  0  0  0  0  0  0  0  0  0  0
   14.0196  132.2480   -3.1064 C   0  0  0  0  0  0  0  0  0  0  0  0
   12.7313  131.9813   -2.5233 C   0  0  0  0  0  0  0  0  0  0  0  0
   11.6962  131.7675   -2.0526 N   0  0  0  0  0  0  0  0  0  0  0  0
   14.2922  133.5198   -3.6001 C   0  0  0  0  0  0  0  0  0  0  0  0
   15.5354  133.7861   -4.1645 C   0  0  0  0  0  0  0  0  0  0  0  0
   17.5121  137.5284   -5.4771 C   0  0  0  0  0  0  0  0  0  0  0  0
   16.7230  137.2468   -4.1663 C   0  0  0  0  0  0  0  0  0  0  0  0
   15.2220  137.3459   -4.3971 C   0  0  0  0  0  0  0  0  0  0  0  0
   14.5070  136.8441   -3.1524 C   0  0  0  0  0  0  0  0  0  0  0  0
   15.3488  137.1641   -1.9960 N   0  0  0  0  0  0  0  0  0  0  0  0
   15.4481  136.3048   -0.8911 C   0  0  0  0  0  0  0  0  0  0  0  0
   15.4972  135.0567   -1.0664 O   0  0  0  0  0  0  0  0  0  0  0  0
   15.5003  136.8432    0.4054 O   0  0  0  0  0  0  0  0  0  0  0  0
   16.6413  136.8639    1.2754 C   0  0  0  0  0  0  0  0  0  0  0  0
   17.7018  137.7538    0.6099 C   0  0  0  0  0  0  0  0  0  0  0  0
   16.2716  137.4689    2.6433 C   0  0  0  0  0  0  0  0  0  0  0  0
   17.2180  135.4454    1.4453 C   0  0  0  0  0  0  0  0  0  0  0  0
   16.0633  138.4359   -2.1273 C   0  0  0  0  0  0  0  0  0  0  0  0
   17.2060  138.2202   -3.1040 C   0  0  0  0  0  0  0  0  0  0  0  0
   20.4765  136.6434   -3.5559 H   0  0  0  0  0  0  0  0  0  0  0  0
   21.4033  137.3562   -2.4158 H   0  0  0  0  0  0  0  0  0  0  0  0
   19.7814  137.3028   -2.2334 H   0  0  0  0  0  0  0  0  0  0  0  0
   20.5594  139.8495   -1.8799 H   0  0  0  0  0  0  0  0  0  0  0  0
   20.3651  141.9659   -2.9851 H   0  0  0  0  0  0  0  0  0  0  0  0
   20.0956  142.0540   -5.3540 H   0  0  0  0  0  0  0  0  0  0  0  0
   20.0168  140.0407   -6.6416 H   0  0  0  0  0  0  0  0  0  0  0  0
   18.2555  135.4802   -4.1424 H   0  0  0  0  0  0  0  0  0  0  0  0
   19.6087  135.0436   -4.9455 H   0  0  0  0  0  0  0  0  0  0  0  0
   18.3776  133.8692   -6.5353 H   0  0  0  0  0  0  0  0  0  0  0  0
   16.9714  134.4893   -5.9834 H   0  0  0  0  0  0  0  0  0  0  0  0
   19.4012  132.0274   -5.3952 H   0  0  0  0  0  0  0  0  0  0  0  0
   18.4819  131.2024   -4.3270 H   0  0  0  0  0  0  0  0  0  0  0  0
   21.4595  133.2858   -4.4237 H   0  0  0  0  0  0  0  0  0  0  0  0
   20.5202  133.2145   -0.4603 H   0  0  0  0  0  0  0  0  0  0  0  0
   17.5482  131.7353   -2.2523 H   0  0  0  0  0  0  0  0  0  0  0  0
   18.3595  131.3177   -0.8980 H   0  0  0  0  0  0  0  0  0  0  0  0
   17.6967  132.8046   -1.0269 H   0  0  0  0  0  0  0  0  0  0  0  0
   16.9072  130.7880   -3.7822 H   0  0  0  0  0  0  0  0  0  0  0  0
   14.7656  130.3254   -2.8105 H   0  0  0  0  0  0  0  0  0  0  0  0
   13.5985  134.2383   -3.5495 H   0  0  0  0  0  0  0  0  0  0  0  0
   15.7411  134.6970   -4.5222 H   0  0  0  0  0  0  0  0  0  0  0  0
   16.8550  137.5356   -6.2308 H   0  0  0  0  0  0  0  0  0  0  0  0
   17.9301  138.4327   -5.3907 H   0  0  0  0  0  0  0  0  0  0  0  0
   16.9352  136.3178   -3.8632 H   0  0  0  0  0  0  0  0  0  0  0  0
   14.9641  136.7846   -5.1835 H   0  0  0  0  0  0  0  0  0  0  0  0
   14.9697  138.2980   -4.5700 H   0  0  0  0  0  0  0  0  0  0  0  0
   14.3723  135.8550   -3.2123 H   0  0  0  0  0  0  0  0  0  0  0  0
   13.6196  137.2965   -3.0634 H   0  0  0  0  0  0  0  0  0  0  0  0
   18.5157  137.7928    1.1895 H   0  0  0  0  0  0  0  0  0  0  0  0
   17.9455  137.3720   -0.2817 H   0  0  0  0  0  0  0  0  0  0  0  0
   17.3346  138.6760    0.4884 H   0  0  0  0  0  0  0  0  0  0  0  0
   17.0782  137.4746    3.2343 H   0  0  0  0  0  0  0  0  0  0  0  0
   15.9448  138.4054    2.5162 H   0  0  0  0  0  0  0  0  0  0  0  0
   15.5517  136.9193    3.0672 H   0  0  0  0  0  0  0  0  0  0  0  0
   18.0111  135.4786    2.0535 H   0  0  0  0  0  0  0  0  0  0  0  0
   16.5205  134.8470    1.8394 H   0  0  0  0  0  0  0  0  0  0  0  0
   17.4968  135.0898    0.5531 H   0  0  0  0  0  0  0  0  0  0  0  0
   16.4232  138.7185   -1.2381 H   0  0  0  0  0  0  0  0  0  0  0  0
   15.4449  139.1403   -2.4758 H   0  0  0  0  0  0  0  0  0  0  0  0
   17.9965  137.8383   -2.6252 H   0  0  0  0  0  0  0  0  0  0  0  0
   17.4611  139.0892   -3.5280 H   0  0  0  0  0  0  0  0  0  0  0  0
  1  2  1  0  0  0  0
  2  3  2  0  0  0  0
  3  4  1  0  0  0  0
  4  5  2  0  0  0  0
  5  6  1  0  0  0  0
  6  7  2  0  0  0  0
  7  8  1  0  0  0  0
  8  9  2  0  0  0  0
  8 10  2  0  0  0  0
  8 11  1  0  0  0  0
 11 12  1  0  0  0  0
 12 13  1  0  0  0  0
 13 14  1  0  0  0  0
 14 15  1  0  0  0  0
 15 16  1  0  0  0  0
 16 17  2  0  0  0  0
 17 18  1  0  0  0  0
 18 19  2  0  0  0  0
 19 20  1  0  0  0  0
 20 21  1  0  0  0  0
 14 22  1  0  0  0  0
 22 23  2  0  0  0  0
 23 24  1  0  0  0  0
 24 25  2  0  0  0  0
 25 26  1  0  0  0  0
 26 27  3  0  0  0  0
 25 28  1  0  0  0  0
 28 29  2  0  0  0  0
 11 30  1  0  0  0  0
 30 31  1  0  0  0  0
 31 32  1  0  0  0  0
 32 33  1  0  0  0  0
 33 34  1  0  0  0  0
 34 35  1  0  0  0  0
 35 36  2  0  0  0  0
 35 37  1  0  0  0  0
 37 38  1  0  0  0  0
 38 39  1  0  0  0  0
 38 40  1  0  0  0  0
 38 41  1  0  0  0  0
 34 42  1  0  0  0  0
 42 43  1  0  0  0  0
  7  2  1  0  0  0  0
 20 16  1  0  0  0  0
 29 22  1  0  0  0  0
 43 31  1  0  0  0  0
  1 44  1  0  0  0  0
  1 45  1  0  0  0  0
  1 46  1  0  0  0  0
  3 47  1  0  0  0  0
  4 48  1  0  0  0  0
  5 49  1  0  0  0  0
  6 50  1  0  0  0  0
 12 51  1  0  0  0  0
 12 52  1  0  0  0  0
 13 53  1  0  0  0  0
 13 54  1  0  0  0  0
 15 55  1  0  0  0  0
 15 56  1  0  0  0  0
 17 57  1  0  0  0  0
 19 58  1  0  0  0  0
 21 59  1  0  0  0  0
 21 60  1  0  0  0  0
 21 61  1  0  0  0  0
 23 62  1  0  0  0  0
 24 63  1  0  0  0  0
 28 64  1  0  0  0  0
 29 65  1  0  0  0  0
 30 66  1  0  0  0  0
 30 67  1  0  0  0  0
 31 68  1  0  0  0  0
 32 69  1  0  0  0  0
 32 70  1  0  0  0  0
 33 71  1  0  0  0  0
 33 72  1  0  0  0  0
 39 73  1  0  0  0  0
 39 74  1  0  0  0  0
 39 75  1  0  0  0  0
 40 76  1  0  0  0  0
 40 77  1  0  0  0  0
 40 78  1  0  0  0  0
 41 79  1  0  0  0  0
 41 80  1  0  0  0  0
 41 81  1  0  0  0  0
 42 82  1  0  0  0  0
 42 83  1  0  0  0  0
 43 84  1  0  0  0  0
 43 85  1  0  0  0  0
M  END
> <BIOSOLVEIT.HYDE_ESTIMATED_AFFINITY_LOWER_BOUNDARY [nM]>
5621.960311

> <BIOSOLVEIT.HYDE_ESTIMATED_AFFINITY_UPPER_BOUNDARY [nM]>
558574.996550

> <BIOSOLVEIT.HYDE_LIGAND_EFFICIENCY range: ++, +, 0, -, -->
--

> <BIOSOLVEIT.HYDE_LIGAND_LIPOPHILIC_EFFICIENCY range: ++, +, 0, -, -->
--

> <BIOSOLVEIT.INTER_CLASH range: red, yellow, green>
green

> <BIOSOLVEIT.INTRA_CLASH range: red, yellow, green>
yellow

> <BIOSOLVEIT.LOGP>
5.5954

> <BIOSOLVEIT.MOLECULAR WEIGHT>
606.787

> <BIOSOLVEIT.MOLECULE_CHECKSUM>
LTI0LjI2Nzc7MC41NjQzNjU=

> <BIOSOLVEIT.TORSION_QUALITY range: red, yellow, green, not rotatable>
red

> <BIOSOLVEIT.TPSA>
111.77

$$$$
3E37_ED5_2
foHydescor03192112173D 1   1.00000     0.00000     0
Hydescorer 1.1.0 fol007
 85 88  0  0  0  0            999 V2000
   20.5222  137.0987   -4.4861 C   0  0  0  0  0  0  0  0  0  0  0  0
   19.9039  138.4864   -4.4380 C   0  0  0  0  0  0  0  0  0  0  0  0
   20.4381  139.4158   -3.5512 C   0  0  0  0  0  0  0  0  0  0  0  0
   19.8900  140.6923   -3.4882 C   0  0  0  0  0  0  0  0  0  0  0  0
   18.8177  141.0296   -4.3076 C   0  0  0  0  0  0  0  0  0  0  0  0
   18.2822  140.1015   -5.1947 C   0  0  0  0  0  0  0  0  0  0  0  0
   18.8306  138.8242   -5.2573 C   0  0  0  0  0  0  0  0  0  0  0  0
   18.1356  137.6552   -6.3934 S   0  0  0  0  0  0  0  0  0  0  0  0
   17.3641  138.4020   -7.4471 O   0  0  0  0  0  0  0  0  0  0  0  0
   19.2576  136.8956   -7.0457 O   0  0  0  0  0  0  0  0  0  0  0  0
   17.0613  136.5726   -5.5237 N   0  0  0  0  0  0  0  0  0  0  0  0
   17.8206  135.4985   -4.8532 C   0  0  0  0  0  0  0  0  0  0  0  0
   17.8189  134.1908   -5.6628 C   0  0  0  0  0  0  0  0  0  0  0  0
   17.6812  133.0382   -4.7628 N   0  0  0  0  0  0  0  0  0  0  0  0
   18.7850  132.0948   -4.5565 C   0  0  0  0  0  0  0  0  0  0  0  0
   19.6778  132.5734   -3.4495 C   0  0  0  0  0  0  0  0  0  0  0  0
   20.9223  133.1099   -3.6031 C   0  0  0  0  0  0  0  0  0  0  0  0
   21.3818  133.4112   -2.3553 N   0  0  0  0  0  0  0  0  0  0  0  0
   20.4624  133.0748   -1.4761 C   0  0  0  0  0  0  0  0  0  0  0  0
   19.3841  132.5555   -2.1225 N   0  0  0  0  0  0  0  0  0  0  0  0
   18.1435  132.0611   -1.5071 C   0  0  0  0  0  0  0  0  0  0  0  0
   16.4276  132.7723   -4.1987 C   0  0  0  0  0  0  0  0  0  0  0  0
   16.1706  131.5117   -3.6693 C   0  0  0  0  0  0  0  0  0  0  0  0
   14.9295  131.2338   -3.1064 C   0  0  0  0  0  0  0  0  0  0  0  0
   13.9582  132.2284   -3.0810 C   0  0  0  0  0  0  0  0  0  0  0  0
   12.6704  131.9537   -2.5001 C   0  0  0  0  0  0  0  0  0  0  0  0
   11.6358  131.7334   -2.0312 N   0  0  0  0  0  0  0  0  0  0  0  0
   14.2104  133.4907   -3.6087 C   0  0  0  0  0  0  0  0  0  0  0  0
   15.4529  133.7646   -4.1711 C   0  0  0  0  0  0  0  0  0  0  0  0
   16.0193  137.2658   -4.7186 C   0  0  0  0  0  0  0  0  0  0  0  0
   16.2393  137.3087   -3.1792 C   0  0  0  0  0  0  0  0  0  0  0  0
   16.4804  138.7370   -2.7181 C   0  0  0  0  0  0  0  0  0  0  0  0
   16.7543  138.6432   -1.2263 C   0  0  0  0  0  0  0  0  0  0  0  0
   15.5154  138.1860   -0.5789 N   0  0  0  0  0  0  0  0  0  0  0  0
   15.3395  138.4324    0.7879 C   0  0  0  0  0  0  0  0  0  0  0  0
   14.1872  138.3663    1.2965 O   0  0  0  0  0  0  0  0  0  0  0  0
   16.4522  138.7447    1.5864 O   0  0  0  0  0  0  0  0  0  0  0  0
   17.2913  137.8119    2.2832 C   0  0  0  0  0  0  0  0  0  0  0  0
   18.6732  137.8590    1.6140 C   0  0  0  0  0  0  0  0  0  0  0  0
   17.4410  138.2147    3.7627 C   0  0  0  0  0  0  0  0  0  0  0  0
   16.7287  136.3828    2.1620 C   0  0  0  0  0  0  0  0  0  0  0  0
   14.4715  137.4847   -1.3482 C   0  0  0  0  0  0  0  0  0  0  0  0
   15.0225  136.6764   -2.5177 C   0  0  0  0  0  0  0  0  0  0  0  0
   20.0403  136.5423   -5.1630 H   0  0  0  0  0  0  0  0  0  0  0  0
   21.4865  137.1720   -4.7404 H   0  0  0  0  0  0  0  0  0  0  0  0
   20.4464  136.6686   -3.5865 H   0  0  0  0  0  0  0  0  0  0  0  0
   21.2090  139.1681   -2.9644 H   0  0  0  0  0  0  0  0  0  0  0  0
   20.2666  141.3676   -2.8541 H   0  0  0  0  0  0  0  0  0  0  0  0
   18.4276  141.9491   -4.2584 H   0  0  0  0  0  0  0  0  0  0  0  0
   17.5113  140.3497   -5.7813 H   0  0  0  0  0  0  0  0  0  0  0  0
   17.4091  135.3237   -3.9587 H   0  0  0  0  0  0  0  0  0  0  0  0
   18.7662  135.8005   -4.7318 H   0  0  0  0  0  0  0  0  0  0  0  0
   18.6780  134.1143   -6.1687 H   0  0  0  0  0  0  0  0  0  0  0  0
   17.0531  134.2014   -6.3058 H   0  0  0  0  0  0  0  0  0  0  0  0
   19.3166  132.0193   -5.4000 H   0  0  0  0  0  0  0  0  0  0  0  0
   18.4124  131.1986   -4.3159 H   0  0  0  0  0  0  0  0  0  0  0  0
   21.4057  133.2547   -4.4664 H   0  0  0  0  0  0  0  0  0  0  0  0
   20.5439  133.1841   -0.4854 H   0  0  0  0  0  0  0  0  0  0  0  0
   17.5234  131.7364   -2.2214 H   0  0  0  0  0  0  0  0  0  0  0  0
   18.3573  131.3086   -0.8841 H   0  0  0  0  0  0  0  0  0  0  0  0
   17.7061  132.8018   -0.9973 H   0  0  0  0  0  0  0  0  0  0  0  0
   16.8782  130.8054   -3.6935 H   0  0  0  0  0  0  0  0  0  0  0  0
   14.7379  130.3296   -2.7247 H   0  0  0  0  0  0  0  0  0  0  0  0
   13.5028  134.1969   -3.5837 H   0  0  0  0  0  0  0  0  0  0  0  0
   15.6442  134.6688   -4.5531 H   0  0  0  0  0  0  0  0  0  0  0  0
   15.1487  136.8037   -4.8875 H   0  0  0  0  0  0  0  0  0  0  0  0
   15.9640  138.2100   -5.0432 H   0  0  0  0  0  0  0  0  0  0  0  0
   17.0453  136.7605   -2.9562 H   0  0  0  0  0  0  0  0  0  0  0  0
   15.6724  139.3006   -2.8901 H   0  0  0  0  0  0  0  0  0  0  0  0
   17.2678  139.1293   -3.1937 H   0  0  0  0  0  0  0  0  0  0  0  0
   17.0153  139.5403   -0.8697 H   0  0  0  0  0  0  0  0  0  0  0  0
   17.4910  137.9891   -1.0547 H   0  0  0  0  0  0  0  0  0  0  0  0
   19.2885  137.2190    2.0743 H   0  0  0  0  0  0  0  0  0  0  0  0
   18.5862  137.6035    0.6510 H   0  0  0  0  0  0  0  0  0  0  0  0
   19.0446  138.7850    1.6809 H   0  0  0  0  0  0  0  0  0  0  0  0
   18.0280  137.5538    4.2304 H   0  0  0  0  0  0  0  0  0  0  0  0
   17.8516  139.1247    3.8205 H   0  0  0  0  0  0  0  0  0  0  0  0
   16.5406  138.2271    4.1976 H   0  0  0  0  0  0  0  0  0  0  0  0
   17.3249  135.7472    2.6525 H   0  0  0  0  0  0  0  0  0  0  0  0
   15.8108  136.3514    2.5574 H   0  0  0  0  0  0  0  0  0  0  0  0
   16.6853  136.1223    1.1976 H   0  0  0  0  0  0  0  0  0  0  0  0
   13.8309  138.1641   -1.7060 H   0  0  0  0  0  0  0  0  0  0  0  0
   13.9880  136.8624   -0.7325 H   0  0  0  0  0  0  0  0  0  0  0  0
   14.3019  136.5839   -3.2048 H   0  0  0  0  0  0  0  0  0  0  0  0
   15.2808  135.7707   -2.1816 H   0  0  0  0  0  0  0  0  0  0  0  0
  1  2  1  0  0  0  0
  2  3  2  0  0  0  0
  3  4  1  0  0  0  0
  4  5  2  0  0  0  0
  5  6  1  0  0  0  0
  6  7  2  0  0  0  0
  7  8  1  0  0  0  0
  8  9  2  0  0  0  0
  8 10  2  0  0  0  0
  8 11  1  0  0  0  0
 11 12  1  0  0  0  0
 12 13  1  0  0  0  0
 13 14  1  0  0  0  0
 14 15  1  0  0  0  0
 15 16  1  0  0  0  0
 16 17  2  0  0  0  0
 17 18  1  0  0  0  0
 18 19  2  0  0  0  0
 19 20  1  0  0  0  0
 20 21  1  0  0  0  0
 14 22  1  0  0  0  0
 22 23  2  0  0  0  0
 23 24  1  0  0  0  0
 24 25  2  0  0  0  0
 25 26  1  0  0  0  0
 26 27  3  0  0  0  0
 25 28  1  0  0  0  0
 28 29  2  0  0  0  0
 11 30  1  0  0  0  0
 30 31  1  0  0  0  0
 31 32  1  0  0  0  0
 32 33  1  0  0  0  0
 33 34  1  0  0  0  0
 34 35  1  0  0  0  0
 35 36  2  0  0  0  0
 35 37  1  0  0  0  0
 37 38  1  0  0  0  0
 38 39  1  0  0  0  0
 38 40  1  0  0  0  0
 38 41  1  0  0  0  0
 34 42  1  0  0  0  0
 42 43  1  0  0  0  0
  7  2  1  0  0  0  0
 20 16  1  0  0  0  0
 29 22  1  0  0  0  0
 43 31  1  0  0  0  0
  1 44  1  0  0  0  0
  1 45  1  0  0  0  0
  1 46  1  0  0  0  0
  3 47  1  0  0  0  0
  4 48  1  0  0  0  0
  5 49  1  0  0  0  0
  6 50  1  0  0  0  0
 12 51  1  0  0  0  0
 12 52  1  0  0  0  0
 13 53  1  0  0  0  0
 13 54  1  0  0  0  0
 15 55  1  0  0  0  0
 15 56  1  0  0  0  0
 17 57  1  0  0  0  0
 19 58  1  0  0  0  0
 21 59  1  0  0  0  0
 21 60  1  0  0  0  0
 21 61  1  0  0  0  0
 23 62  1  0  0  0  0
 24 63  1  0  0  0  0
 28 64  1  0  0  0  0
 29 65  1  0  0  0  0
 30 66  1  0  0  0  0
 30 67  1  0  0  0  0
 31 68  1  0  0  0  0
 32 69  1  0  0  0  0
 32 70  1  0  0  0  0
 33 71  1  0  0  0  0
 33 72  1  0  0  0  0
 39 73  1  0  0  0  0
 39 74  1  0  0  0  0
 39 75  1  0  0  0  0
 40 76  1  0  0  0  0
 40 77  1  0  0  0  0
 40 78  1  0  0  0  0
 41 79  1  0  0  0  0
 41 80  1  0  0  0  0
 41 81  1  0  0  0  0
 42 82  1  0  0  0  0
 42 83  1  0  0  0  0
 43 84  1  0  0  0  0
 43 85  1  0  0  0  0
M  END
> <BIOSOLVEIT.HYDE_ESTIMATED_AFFINITY_LOWER_BOUNDARY [nM]>
3.096521

> <BIOSOLVEIT.HYDE_ESTIMATED_AFFINITY_UPPER_BOUNDARY [nM]>
307.657630

> <BIOSOLVEIT.HYDE_LIGAND_EFFICIENCY range: ++, +, 0, -, -->
-

> <BIOSOLVEIT.HYDE_LIGAND_LIPOPHILIC_EFFICIENCY range: ++, +, 0, -, -->
--

> <BIOSOLVEIT.INTER_CLASH range: red, yellow, green>
green

> <BIOSOLVEIT.INTRA_CLASH range: red, yellow, green>
yellow

> <BIOSOLVEIT.LOGP>
5.5954

> <BIOSOLVEIT.MOLECULAR WEIGHT>
606.787

> <BIOSOLVEIT.MOLECULE_CHECKSUM>
LTQyLjg3MDI7MC45OTY5ODE=

> <BIOSOLVEIT.TORSION_QUALITY range: red, yellow, green, not rotatable>
red

> <BIOSOLVEIT.TPSA>
111.77

$$$$
3E37_ED5_3
foHydescor03192112173D 1   1.00000     0.00000     0
Hydescorer 1.1.0 fol007
 85 88  0  0  0  0            999 V2000
   20.5447  137.6408   -3.0254 C   0  0  0  0  0  0  0  0  0  0  0  0
   20.3385  138.9033   -3.8463 C   0  0  0  0  0  0  0  0  0  0  0  0
   20.4182  140.1317   -3.1980 C   0  0  0  0  0  0  0  0  0  0  0  0
   20.2332  141.3014   -3.9270 C   0  0  0  0  0  0  0  0  0  0  0  0
   19.9713  141.2360   -5.2916 C   0  0  0  0  0  0  0  0  0  0  0  0
   19.8911  140.0086   -5.9414 C   0  0  0  0  0  0  0  0  0  0  0  0
   20.0759  138.8384   -5.2117 C   0  0  0  0  0  0  0  0  0  0  0  0
   19.9702  137.2841   -6.0562 S   0  0  0  0  0  0  0  0  0  0  0  0
   20.1515  137.5195   -7.5309 O   0  0  0  0  0  0  0  0  0  0  0  0
   21.0730  136.3917   -5.5575 O   0  0  0  0  0  0  0  0  0  0  0  0
   18.3948  136.5693   -5.7564 N   0  0  0  0  0  0  0  0  0  0  0  0
   18.5203  135.3098   -4.9965 C   0  0  0  0  0  0  0  0  0  0  0  0
   17.8442  134.1279   -5.7116 C   0  0  0  0  0  0  0  0  0  0  0  0
   17.7048  132.9918   -4.7912 N   0  0  0  0  0  0  0  0  0  0  0  0
   18.8073  132.0507   -4.5676 C   0  0  0  0  0  0  0  0  0  0  0  0
   19.6934  132.5417   -3.4608 C   0  0  0  0  0  0  0  0  0  0  0  0
   20.9392  133.0760   -3.6130 C   0  0  0  0  0  0  0  0  0  0  0  0
   21.3911  133.3916   -2.3659 N   0  0  0  0  0  0  0  0  0  0  0  0
   20.4661  133.0656   -1.4885 C   0  0  0  0  0  0  0  0  0  0  0  0
   19.3917  132.5392   -2.1355 N   0  0  0  0  0  0  0  0  0  0  0  0
   18.1471  132.0523   -1.5221 C   0  0  0  0  0  0  0  0  0  0  0  0
   16.4507  132.7376   -4.2228 C   0  0  0  0  0  0  0  0  0  0  0  0
   16.1843  131.4799   -3.6910 C   0  0  0  0  0  0  0  0  0  0  0  0
   14.9425  131.2137   -3.1239 C   0  0  0  0  0  0  0  0  0  0  0  0
   13.9801  132.2169   -3.0966 C   0  0  0  0  0  0  0  0  0  0  0  0
   12.6918  131.9543   -2.5113 C   0  0  0  0  0  0  0  0  0  0  0  0
   11.6569  131.7437   -2.0388 N   0  0  0  0  0  0  0  0  0  0  0  0
   14.2418  133.4763   -3.6266 C   0  0  0  0  0  0  0  0  0  0  0  0
   15.4849  133.7385   -4.1933 C   0  0  0  0  0  0  0  0  0  0  0  0
   17.3652  137.5380   -5.2914 C   0  0  0  0  0  0  0  0  0  0  0  0
   17.1456  137.6404   -3.7547 C   0  0  0  0  0  0  0  0  0  0  0  0
   16.9050  139.0855   -3.3491 C   0  0  0  0  0  0  0  0  0  0  0  0
   16.7811  139.0687   -1.8346 C   0  0  0  0  0  0  0  0  0  0  0  0
   15.5602  138.3197   -1.5008 N   0  0  0  0  0  0  0  0  0  0  0  0
   14.9692  138.5198   -0.2476 C   0  0  0  0  0  0  0  0  0  0  0  0
   13.7289  138.3432   -0.1009 O   0  0  0  0  0  0  0  0  0  0  0  0
   15.7655  138.9092    0.8421 O   0  0  0  0  0  0  0  0  0  0  0  0
   15.8639  140.2282    1.3988 C   0  0  0  0  0  0  0  0  0  0  0  0
   15.5184  140.1163    2.8914 C   0  0  0  0  0  0  0  0  0  0  0  0
   17.2989  140.7717    1.2597 C   0  0  0  0  0  0  0  0  0  0  0  0
   14.8545  141.1768    0.7246 C   0  0  0  0  0  0  0  0  0  0  0  0
   14.9612  137.3773   -2.4632 C   0  0  0  0  0  0  0  0  0  0  0  0
   15.9834  136.7274   -3.3892 C   0  0  0  0  0  0  0  0  0  0  0  0
   20.4597  136.8401   -3.6183 H   0  0  0  0  0  0  0  0  0  0  0  0
   21.4560  137.6558   -2.6140 H   0  0  0  0  0  0  0  0  0  0  0  0
   19.8539  137.5960   -2.3037 H   0  0  0  0  0  0  0  0  0  0  0  0
   20.6068  140.1731   -2.2168 H   0  0  0  0  0  0  0  0  0  0  0  0
   20.2884  142.1894   -3.4704 H   0  0  0  0  0  0  0  0  0  0  0  0
   19.8394  142.0802   -5.8111 H   0  0  0  0  0  0  0  0  0  0  0  0
   19.7025  139.9678   -6.9227 H   0  0  0  0  0  0  0  0  0  0  0  0
   18.0932  135.4307   -4.1004 H   0  0  0  0  0  0  0  0  0  0  0  0
   19.4911  135.1011   -4.8776 H   0  0  0  0  0  0  0  0  0  0  0  0
   18.4021  133.8524   -6.4944 H   0  0  0  0  0  0  0  0  0  0  0  0
   16.9387  134.4085   -6.0298 H   0  0  0  0  0  0  0  0  0  0  0  0
   19.3440  131.9657   -5.4071 H   0  0  0  0  0  0  0  0  0  0  0  0
   18.4332  131.1572   -4.3193 H   0  0  0  0  0  0  0  0  0  0  0  0
   21.4279  133.2107   -4.4749 H   0  0  0  0  0  0  0  0  0  0  0  0
   20.5416  133.1862   -0.4987 H   0  0  0  0  0  0  0  0  0  0  0  0
   17.5313  131.7197   -2.2364 H   0  0  0  0  0  0  0  0  0  0  0  0
   18.3568  131.3070   -0.8891 H   0  0  0  0  0  0  0  0  0  0  0  0
   17.7068  132.7990   -1.0235 H   0  0  0  0  0  0  0  0  0  0  0  0
   16.8855  130.7674   -3.7166 H   0  0  0  0  0  0  0  0  0  0  0  0
   14.7442  130.3117   -2.7404 H   0  0  0  0  0  0  0  0  0  0  0  0
   13.5406  134.1887   -3.6003 H   0  0  0  0  0  0  0  0  0  0  0  0
   15.6830  134.6405   -4.5770 H   0  0  0  0  0  0  0  0  0  0  0  0
   16.4935  137.2757   -5.7052 H   0  0  0  0  0  0  0  0  0  0  0  0
   17.6311  138.4441   -5.6204 H   0  0  0  0  0  0  0  0  0  0  0  0
   17.9685  137.3112   -3.2917 H   0  0  0  0  0  0  0  0  0  0  0  0
   16.0627  139.4292   -3.7645 H   0  0  0  0  0  0  0  0  0  0  0  0
   17.6739  139.6598   -3.6302 H   0  0  0  0  0  0  0  0  0  0  0  0
   16.7141  140.0039   -1.4868 H   0  0  0  0  0  0  0  0  0  0  0  0
   17.5785  138.6196   -1.4316 H   0  0  0  0  0  0  0  0  0  0  0  0
   15.5765  141.0199    3.3156 H   0  0  0  0  0  0  0  0  0  0  0  0
   14.5898  139.7595    2.9928 H   0  0  0  0  0  0  0  0  0  0  0  0
   16.1641  139.4965    3.3375 H   0  0  0  0  0  0  0  0  0  0  0  0
   17.3471  141.6899    1.6527 H   0  0  0  0  0  0  0  0  0  0  0  0
   17.9322  140.1682    1.7440 H   0  0  0  0  0  0  0  0  0  0  0  0
   17.5486  140.8096    0.2922 H   0  0  0  0  0  0  0  0  0  0  0  0
   14.9369  142.0898    1.1242 H   0  0  0  0  0  0  0  0  0  0  0  0
   15.0448  141.2237   -0.2560 H   0  0  0  0  0  0  0  0  0  0  0  0
   13.9266  140.8328    0.8680 H   0  0  0  0  0  0  0  0  0  0  0  0
   14.2976  137.8742   -3.0225 H   0  0  0  0  0  0  0  0  0  0  0  0
   14.4930  136.6566   -1.9519 H   0  0  0  0  0  0  0  0  0  0  0  0
   15.5184  136.4555   -4.2316 H   0  0  0  0  0  0  0  0  0  0  0  0
   16.3504  135.9159   -2.9343 H   0  0  0  0  0  0  0  0  0  0  0  0
  1  2  1  0  0  0  0
  2  3  2  0  0  0  0
  3  4  1  0  0  0  0
  4  5  2  0  0  0  0
  5  6  1  0  0  0  0
  6  7  2  0  0  0  0
  7  8  1  0  0  0  0
  8  9  2  0  0  0  0
  8 10  2  0  0  0  0
  8 11  1  0  0  0  0
 11 12  1  0  0  0  0
 12 13  1  0  0  0  0
 13 14  1  0  0  0  0
 14 15  1  0  0  0  0
 15 16  1  0  0  0  0
 16 17  2  0  0  0  0
 17 18  1  0  0  0  0
 18 19  2  0  0  0  0
 19 20  1  0  0  0  0
 20 21  1  0  0  0  0
 14 22  1  0  0  0  0
 22 23  2  0  0  0  0
 23 24  1  0  0  0  0
 24 25  2  0  0  0  0
 25 26  1  0  0  0  0
 26 27  3  0  0  0  0
 25 28  1  0  0  0  0
 28 29  2  0  0  0  0
 11 30  1  0  0  0  0
 30 31  1  0  0  0  0
 31 32  1  0  0  0  0
 32 33  1  0  0  0  0
 33 34  1  0  0  0  0
 34 35  1  0  0  0  0
 35 36  2  0  0  0  0
 35 37  1  0  0  0  0
 37 38  1  0  0  0  0
 38 39  1  0  0  0  0
 38 40  1  0  0  0  0
 38 41  1  0  0  0  0
 34 42  1  0  0  0  0
 42 43  1  0  0  0  0
  7  2  1  0  0  0  0
 20 16  1  0  0  0  0
 29 22  1  0  0  0  0
 43 31  1  0  0  0  0
  1 44  1  0  0  0  0
  1 45  1  0  0  0  0
  1 46  1  0  0  0  0
  3 47  1  0  0  0  0
  4 48  1  0  0  0  0
  5 49  1  0  0  0  0
  6 50  1  0  0  0  0
 12 51  1  0  0  0  0
 12 52  1  0  0  0  0
 13 53  1  0  0  0  0
 13 54  1  0  0  0  0
 15 55  1  0  0  0  0
 15 56  1  0  0  0  0
 17 57  1  0  0  0  0
 19 58  1  0  0  0  0
 21 59  1  0  0  0  0
 21 60  1  0  0  0  0
 21 61  1  0  0  0  0
 23 62  1  0  0  0  0
 24 63  1  0  0  0  0
 28 64  1  0  0  0  0
 29 65  1  0  0  0  0
 30 66  1  0  0  0  0
 30 67  1  0  0  0  0
 31 68  1  0  0  0  0
 32 69  1  0  0  0  0
 32 70  1  0  0  0  0
 33 71  1  0  0  0  0
 33 72  1  0  0  0  0
 39 73  1  0  0  0  0
 39 74  1  0  0  0  0
 39 75  1  0  0  0  0
 40 76  1  0  0  0  0
 40 77  1  0  0  0  0
 40 78  1  0  0  0  0
 41 79  1  0  0  0  0
 41 80  1  0  0  0  0
 41 81  1  0  0  0  0
 42 82  1  0  0  0  0
 42 83  1  0  0  0  0
 43 84  1  0  0  0  0
 43 85  1  0  0  0  0
M  END
> <BIOSOLVEIT.HYDE_ESTIMATED_AFFINITY_LOWER_BOUNDARY [nM]>
25.244234

> <BIOSOLVEIT.HYDE_ESTIMATED_AFFINITY_UPPER_BOUNDARY [nM]>
2508.163885

> <BIOSOLVEIT.HYDE_LIGAND_EFFICIENCY range: ++, +, 0, -, -->
-

> <BIOSOLVEIT.HYDE_LIGAND_LIPOPHILIC_EFFICIENCY range: ++, +, 0, -, -->
--

> <BIOSOLVEIT.INTER_CLASH range: red, yellow, green>
green

> <BIOSOLVEIT.INTRA_CLASH range: red, yellow, green>
yellow

> <BIOSOLVEIT.LOGP>
5.5954

> <BIOSOLVEIT.MOLECULAR WEIGHT>
606.787

> <BIOSOLVEIT.MOLECULE_CHECKSUM>
LTM3LjY2ODU7MC44NzYwMTI=

> <BIOSOLVEIT.TORSION_QUALITY range: red, yellow, green, not rotatable>
red

> <BIOSOLVEIT.TPSA>
111.77

$$$$
2IEJ_S48_1
foHydescor03192112173D 1   1.00000     0.00000     0
Hydescorer 1.1.0 fol007
 68 72  0  0  0  0            999 V2000
   15.2243  136.3832   -8.4126 C   0  0  0  0  0  0  0  0  0  0  0  0
   15.7345  136.8943   -7.1875 O   0  0  0  0  0  0  0  0  0  0  0  0
   17.0375  137.3842   -7.0613 C   0  0  0  0  0  0  0  0  0  0  0  0
   17.8010  137.4482   -8.0641 O   0  0  0  0  0  0  0  0  0  0  0  0
   17.5428  137.7985   -5.7130 C   0  0  0  0  0  0  0  0  0  0  0  0
   18.6016  136.8734   -5.2427 N   0  0  0  0  0  0  0  0  0  0  0  0
   18.1561  135.9767   -4.1297 C   0  0  2  0  0  0  0  0  0  0  0  0
   19.3436  135.1257   -3.7099 C   0  0  0  0  0  0  0  0  0  0  0  0
   18.8158  134.1910   -2.6368 C   0  0  0  0  0  0  0  0  0  0  0  0
   19.5494  133.9802   -1.4750 C   0  0  0  0  0  0  0  0  0  0  0  0
   19.0172  133.1473   -0.4946 C   0  0  0  0  0  0  0  0  0  0  0  0
   19.7552  132.9552    0.7389 C   0  0  0  0  0  0  0  0  0  0  0  0
   20.8033  133.8147    1.0499 C   0  0  0  0  0  0  0  0  0  0  0  0
   21.5073  133.6246    2.2343 C   0  0  0  0  0  0  0  0  0  0  0  0
   21.1676  132.5885    3.0969 C   0  0  0  0  0  0  0  0  0  0  0  0
   20.1177  131.7333    2.7775 C   0  0  0  0  0  0  0  0  0  0  0  0
   19.4078  131.9154    1.5953 C   0  0  0  0  0  0  0  0  0  0  0  0
   17.7931  132.5131   -0.6775 C   0  0  0  0  0  0  0  0  0  0  0  0
   17.0969  132.7313   -1.8625 C   0  0  0  0  0  0  0  0  0  0  0  0
   17.5923  133.5664   -2.8579 C   0  0  0  0  0  0  0  0  0  0  0  0
   16.9032  133.8166   -4.0598 N   0  0  0  0  0  0  0  0  0  0  0  0
   16.1225  132.7773   -4.7471 C   0  0  0  0  0  0  0  0  0  0  0  0
   14.8458  132.4755   -4.0087 C   0  0  0  0  0  0  0  0  0  0  0  0
   14.6050  131.3679   -3.2501 C   0  0  0  0  0  0  0  0  0  0  0  0
   13.3379  131.4887   -2.7616 N   0  0  0  0  0  0  0  0  0  0  0  0
   12.8240  132.6178   -3.2002 C   0  0  0  0  0  0  0  0  0  0  0  0
   13.7378  133.2621   -3.9750 N   0  0  0  0  0  0  0  0  0  0  0  0
   13.5608  134.5546   -4.6537 C   0  0  0  0  0  0  0  0  0  0  0  0
   16.9565  135.1778   -4.6184 C   0  0  0  0  0  0  0  0  0  0  0  0
   20.0166  137.8250   -4.7713 S   0  0  0  0  0  0  0  0  0  0  0  0
   21.2058  137.5099   -5.6362 O   0  0  0  0  0  0  0  0  0  0  0  0
   20.3837  137.4837   -3.3539 O   0  0  0  0  0  0  0  0  0  0  0  0
   19.7174  139.5554   -4.8915 C   0  0  0  0  0  0  0  0  0  0  0  0
   19.2743  140.3480   -3.8774 C   0  0  0  0  0  0  0  0  0  0  0  0
   19.1836  141.5976   -4.4041 N   0  0  0  0  0  0  0  0  0  0  0  0
   18.7476  142.8045   -3.6874 C   0  0  0  0  0  0  0  0  0  0  0  0
   19.5680  141.5431   -5.7086 C   0  0  0  0  0  0  0  0  0  0  0  0
   19.8942  140.3089   -6.0139 N   0  0  0  0  0  0  0  0  0  0  0  0
   14.2779  136.0877   -8.2822 H   0  0  0  0  0  0  0  0  0  0  0  0
   15.2571  137.0979   -9.1113 H   0  0  0  0  0  0  0  0  0  0  0  0
   15.7791  135.6047   -8.7058 H   0  0  0  0  0  0  0  0  0  0  0  0
   16.7846  137.7881   -5.0610 H   0  0  0  0  0  0  0  0  0  0  0  0
   17.9180  138.7234   -5.7732 H   0  0  0  0  0  0  0  0  0  0  0  0
   17.8735  136.5411   -3.3541 H   0  0  0  0  0  0  0  0  0  0  0  0
   20.0738  135.7020   -3.3428 H   0  0  0  0  0  0  0  0  0  0  0  0
   19.6911  134.6029   -4.4883 H   0  0  0  0  0  0  0  0  0  0  0  0
   20.4396  134.4171   -1.3463 H   0  0  0  0  0  0  0  0  0  0  0  0
   21.0478  134.5601    0.4297 H   0  0  0  0  0  0  0  0  0  0  0  0
   22.2628  134.2372    2.4669 H   0  0  0  0  0  0  0  0  0  0  0  0
   21.6779  132.4579    3.9470 H   0  0  0  0  0  0  0  0  0  0  0  0
   19.8735  130.9879    3.3977 H   0  0  0  0  0  0  0  0  0  0  0  0
   18.6525  131.3027    1.3625 H   0  0  0  0  0  0  0  0  0  0  0  0
   17.4201  131.9118    0.0291 H   0  0  0  0  0  0  0  0  0  0  0  0
   16.2177  132.2757   -2.0019 H   0  0  0  0  0  0  0  0  0  0  0  0
   16.6705  131.9429   -4.8052 H   0  0  0  0  0  0  0  0  0  0  0  0
   15.8987  133.0940   -5.6689 H   0  0  0  0  0  0  0  0  0  0  0  0
   15.2374  130.6113   -3.0838 H   0  0  0  0  0  0  0  0  0  0  0  0
   11.9035  132.9510   -2.9955 H   0  0  0  0  0  0  0  0  0  0  0  0
   14.3958  134.7860   -5.1527 H   0  0  0  0  0  0  0  0  0  0  0  0
   12.7957  134.4925   -5.2946 H   0  0  0  0  0  0  0  0  0  0  0  0
   13.3705  135.2641   -3.9752 H   0  0  0  0  0  0  0  0  0  0  0  0
   16.1225  135.6628   -4.3553 H   0  0  0  0  0  0  0  0  0  0  0  0
   17.0031  135.1112   -5.6151 H   0  0  0  0  0  0  0  0  0  0  0  0
   19.0604  140.0693   -2.9412 H   0  0  0  0  0  0  0  0  0  0  0  0
   18.7733  143.5882   -4.3081 H   0  0  0  0  0  0  0  0  0  0  0  0
   17.8141  142.6746   -3.3529 H   0  0  0  0  0  0  0  0  0  0  0  0
   19.3586  142.9718   -2.9137 H   0  0  0  0  0  0  0  0  0  0  0  0
   19.5974  142.3212   -6.3360 H   0  0  0  0  0  0  0  0  0  0  0  0
  1  2  1  0  0  0  0
  2  3  1  0  0  0  0
  3  4  2  0  0  0  0
  3  5  1  0  0  0  0
  5  6  1  0  0  0  0
  6  7  1  0  0  0  0
  7  8  1  0  0  0  0
  8  9  1  0  0  0  0
  9 10  2  0  0  0  0
 10 11  1  0  0  0  0
 11 12  1  0  0  0  0
 12 13  2  0  0  0  0
 13 14  1  0  0  0  0
 14 15  2  0  0  0  0
 15 16  1  0  0  0  0
 16 17  2  0  0  0  0
 11 18  2  0  0  0  0
 18 19  1  0  0  0  0
 19 20  2  0  0  0  0
 20 21  1  0  0  0  0
 21 22  1  0  0  0  0
 22 23  1  0  0  0  0
 23 24  2  0  0  0  0
 24 25  1  0  0  0  0
 25 26  2  0  0  0  0
 26 27  1  0  0  0  0
 27 28  1  0  0  0  0
 21 29  1  0  0  0  0
  6 30  1  0  0  0  0
 30 31  2  0  0  0  0
 30 32  2  0  0  0  0
 30 33  1  0  0  0  0
 33 34  2  0  0  0  0
 34 35  1  0  0  0  0
 35 36  1  0  0  0  0
 35 37  1  0  0  0  0
 37 38  2  0  0  0  0
 29  7  1  0  0  0  0
 38 33  1  0  0  0  0
 20  9  1  0  0  0  0
 27 23  1  0  0  0  0
 17 12  1  0  0  0  0
  1 39  1  0  0  0  0
  1 40  1  0  0  0  0
  1 41  1  0  0  0  0
  5 42  1  0  0  0  0
  5 43  1  0  0  0  0
  7 44  1  0  0  0  0
  8 45  1  0  0  0  0
  8 46  1  0  0  0  0
 10 47  1  0  0  0  0
 13 48  1  0  0  0  0
 14 49  1  0  0  0  0
 15 50  1  0  0  0  0
 16 51  1  0  0  0  0
 17 52  1  0  0  0  0
 18 53  1  0  0  0  0
 19 54  1  0  0  0  0
 22 55  1  0  0  0  0
 22 56  1  0  0  0  0
 24 57  1  0  0  0  0
 26 58  1  0  0  0  0
 28 59  1  0  0  0  0
 28 60  1  0  0  0  0
 28 61  1  0  0  0  0
 29 62  1  0  0  0  0
 29 63  1  0  0  0  0
 34 64  1  0  0  0  0
 36 65  1  0  0  0  0
 36 66  1  0  0  0  0
 36 67  1  0  0  0  0
 37 68  1  0  0  0  0
M  END
> <BIOSOLVEIT.HYDE_ESTIMATED_AFFINITY_LOWER_BOUNDARY [nM]>
2269802012.707730

> <BIOSOLVEIT.HYDE_ESTIMATED_AFFINITY_UPPER_BOUNDARY [nM]>
225518250094.097046

> <BIOSOLVEIT.HYDE_LIGAND_EFFICIENCY range: ++, +, 0, -, -->
--

> <BIOSOLVEIT.HYDE_LIGAND_LIPOPHILIC_EFFICIENCY range: ++, +, 0, -, -->
--

> <BIOSOLVEIT.INTER_CLASH range: red, yellow, green>
green

> <BIOSOLVEIT.INTRA_CLASH range: red, yellow, green>
red

> <BIOSOLVEIT.LOGP>
3.2664

> <BIOSOLVEIT.MOLECULAR WEIGHT>
534.637

> <BIOSOLVEIT.MOLECULE_CHECKSUM>
Ny43MzE5ODsw

> <BIOSOLVEIT.TORSION_QUALITY range: red, yellow, green, not rotatable>
red

> <BIOSOLVEIT.TPSA>
102.56

$$$$
2IEJ_S48_2
foHydescor03192112173D 1   1.00000     0.00000     0
Hydescorer 1.1.0 fol007
 68 72  0  0  0  0            999 V2000
   15.3847  138.1881   -8.9973 C   0  0  0  0  0  0  0  0  0  0  0  0
   15.8633  138.4444   -7.6829 O   0  0  0  0  0  0  0  0  0  0  0  0
   17.0965  137.9709   -7.2258 C   0  0  0  0  0  0  0  0  0  0  0  0
   17.8415  137.2848   -7.9786 O   0  0  0  0  0  0  0  0  0  0  0  0
   17.5162  138.2482   -5.8145 C   0  0  0  0  0  0  0  0  0  0  0  0
   18.5380  137.2704   -5.3695 N   0  0  0  0  0  0  0  0  0  0  0  0
   18.0418  136.3307   -4.3147 C   0  0  2  0  0  0  0  0  0  0  0  0
   19.1859  135.4037   -3.9376 C   0  0  0  0  0  0  0  0  0  0  0  0
   18.6061  134.4323   -2.9255 C   0  0  0  0  0  0  0  0  0  0  0  0
   19.3180  134.1205   -1.7729 C   0  0  0  0  0  0  0  0  0  0  0  0
   18.7394  133.2563   -0.8475 C   0  0  0  0  0  0  0  0  0  0  0  0
   19.4558  132.9587    0.3778 C   0  0  0  0  0  0  0  0  0  0  0  0
   18.9160  133.3504    1.5981 C   0  0  0  0  0  0  0  0  0  0  0  0
   19.6084  133.0624    2.7694 C   0  0  0  0  0  0  0  0  0  0  0  0
   20.8248  132.3908    2.7214 C   0  0  0  0  0  0  0  0  0  0  0  0
   21.3574  132.0030    1.4960 C   0  0  0  0  0  0  0  0  0  0  0  0
   20.6725  132.2866    0.3191 C   0  0  0  0  0  0  0  0  0  0  0  0
   17.4900  132.6900   -1.0766 C   0  0  0  0  0  0  0  0  0  0  0  0
   16.8161  133.0087   -2.2516 C   0  0  0  0  0  0  0  0  0  0  0  0
   17.3583  133.8778   -3.1922 C   0  0  0  0  0  0  0  0  0  0  0  0
   16.6930  134.2292   -4.3821 N   0  0  0  0  0  0  0  0  0  0  0  0
   15.8734  133.2685   -5.1356 C   0  0  0  0  0  0  0  0  0  0  0  0
   14.6426  132.8765   -4.3624 C   0  0  0  0  0  0  0  0  0  0  0  0
   14.4351  131.6775   -3.7462 C   0  0  0  0  0  0  0  0  0  0  0  0
   13.2039  131.7381   -3.1638 N   0  0  0  0  0  0  0  0  0  0  0  0
   12.6792  132.9192   -3.4112 C   0  0  0  0  0  0  0  0  0  0  0  0
   13.5506  133.6575   -4.1500 N   0  0  0  0  0  0  0  0  0  0  0  0
   13.3491  135.0311   -4.6348 C   0  0  0  0  0  0  0  0  0  0  0  0
   16.8126  135.6171   -4.8587 C   0  0  0  0  0  0  0  0  0  0  0  0
   19.9669  138.1558   -4.8178 S   0  0  0  0  0  0  0  0  0  0  0  0
   21.1763  137.8222   -5.6468 O   0  0  0  0  0  0  0  0  0  0  0  0
   20.2672  137.7614   -3.3985 O   0  0  0  0  0  0  0  0  0  0  0  0
   19.7339  139.8988   -4.8976 C   0  0  0  0  0  0  0  0  0  0  0  0
   19.4132  140.6971   -3.8428 C   0  0  0  0  0  0  0  0  0  0  0  0
   19.3326  141.9558   -4.3494 N   0  0  0  0  0  0  0  0  0  0  0  0
   19.0115  143.1716   -3.5882 C   0  0  0  0  0  0  0  0  0  0  0  0
   19.6023  141.9006   -5.6823 C   0  0  0  0  0  0  0  0  0  0  0  0
   19.8475  140.6574   -6.0246 N   0  0  0  0  0  0  0  0  0  0  0  0
   14.4883  138.6154   -9.1149 H   0  0  0  0  0  0  0  0  0  0  0  0
   16.0250  138.5676   -9.6652 H   0  0  0  0  0  0  0  0  0  0  0  0
   15.3042  137.2010   -9.1362 H   0  0  0  0  0  0  0  0  0  0  0  0
   16.7177  138.1839   -5.2159 H   0  0  0  0  0  0  0  0  0  0  0  0
   17.8993  139.1704   -5.7612 H   0  0  0  0  0  0  0  0  0  0  0  0
   17.7770  136.8607   -3.5091 H   0  0  0  0  0  0  0  0  0  0  0  0
   19.9374  135.9238   -3.5316 H   0  0  0  0  0  0  0  0  0  0  0  0
   19.5172  134.9124   -4.7430 H   0  0  0  0  0  0  0  0  0  0  0  0
   20.2255  134.5084   -1.6121 H   0  0  0  0  0  0  0  0  0  0  0  0
   18.0410  133.8332    1.6329 H   0  0  0  0  0  0  0  0  0  0  0  0
   19.2288  133.3402    3.6519 H   0  0  0  0  0  0  0  0  0  0  0  0
   21.3169  132.1865    3.5677 H   0  0  0  0  0  0  0  0  0  0  0  0
   22.2325  131.5204    1.4613 H   0  0  0  0  0  0  0  0  0  0  0  0
   21.0521  132.0093   -0.5635 H   0  0  0  0  0  0  0  0  0  0  0  0
   17.0837  132.0655   -0.4095 H   0  0  0  0  0  0  0  0  0  0  0  0
   15.9188  132.6022   -2.4241 H   0  0  0  0  0  0  0  0  0  0  0  0
   16.4173  132.4497   -5.3194 H   0  0  0  0  0  0  0  0  0  0  0  0
   15.5956  133.6854   -6.0010 H   0  0  0  0  0  0  0  0  0  0  0  0
   15.0658  130.9018   -3.7255 H   0  0  0  0  0  0  0  0  0  0  0  0
   11.7788  133.2267   -3.1035 H   0  0  0  0  0  0  0  0  0  0  0  0
   14.1537  135.3236   -5.1517 H   0  0  0  0  0  0  0  0  0  0  0  0
   12.5437  135.0609   -5.2268 H   0  0  0  0  0  0  0  0  0  0  0  0
   13.2130  135.6429   -3.8557 H   0  0  0  0  0  0  0  0  0  0  0  0
   15.9985  136.1229   -4.5734 H   0  0  0  0  0  0  0  0  0  0  0  0
   16.8661  135.6073   -5.8572 H   0  0  0  0  0  0  0  0  0  0  0  0
   19.2674  140.4164   -2.8941 H   0  0  0  0  0  0  0  0  0  0  0  0
   19.0186  143.9609   -4.2022 H   0  0  0  0  0  0  0  0  0  0  0  0
   18.1049  143.0775   -3.1767 H   0  0  0  0  0  0  0  0  0  0  0  0
   19.6925  143.3035   -2.8678 H   0  0  0  0  0  0  0  0  0  0  0  0
   19.6121  142.6843   -6.3034 H   0  0  0  0  0  0  0  0  0  0  0  0
  1  2  1  0  0  0  0
  2  3  1  0  0  0  0
  3  4  2  0  0  0  0
  3  5  1  0  0  0  0
  5  6  1  0  0  0  0
  6  7  1  0  0  0  0
  7  8  1  0  0  0  0
  8  9  1  0  0  0  0
  9 10  2  0  0  0  0
 10 11  1  0  0  0  0
 11 12  1  0  0  0  0
 12 13  2  0  0  0  0
 13 14  1  0  0  0  0
 14 15  2  0  0  0  0
 15 16  1  0  0  0  0
 16 17  2  0  0  0  0
 11 18  2  0  0  0  0
 18 19  1  0  0  0  0
 19 20  2  0  0  0  0
 20 21  1  0  0  0  0
 21 22  1  0  0  0  0
 22 23  1  0  0  0  0
 23 24  2  0  0  0  0
 24 25  1  0  0  0  0
 25 26  2  0  0  0  0
 26 27  1  0  0  0  0
 27 28  1  0  0  0  0
 21 29  1  0  0  0  0
  6 30  1  0  0  0  0
 30 31  2  0  0  0  0
 30 32  2  0  0  0  0
 30 33  1  0  0  0  0
 33 34  2  0  0  0  0
 34 35  1  0  0  0  0
 35 36  1  0  0  0  0
 35 37  1  0  0  0  0
 37 38  2  0  0  0  0
 29  7  1  0  0  0  0
 38 33  1  0  0  0  0
 20  9  1  0  0  0  0
 27 23  1  0  0  0  0
 17 12  1  0  0  0  0
  1 39  1  0  0  0  0
  1 40  1  0  0  0  0
  1 41  1  0  0  0  0
  5 42  1  0  0  0  0
  5 43  1  0  0  0  0
  7 44  1  0  0  0  0
  8 45  1  0  0  0  0
  8 46  1  0  0  0  0
 10 47  1  0  0  0  0
 13 48  1  0  0  0  0
 14 49  1  0  0  0  0
 15 50  1  0  0  0  0
 16 51  1  0  0  0  0
 17 52  1  0  0  0  0
 18 53  1  0  0  0  0
 19 54  1  0  0  0  0
 22 55  1  0  0  0  0
 22 56  1  0  0  0  0
 24 57  1  0  0  0  0
 26 58  1  0  0  0  0
 28 59  1  0  0  0  0
 28 60  1  0  0  0  0
 28 61  1  0  0  0  0
 29 62  1  0  0  0  0
 29 63  1  0  0  0  0
 34 64  1  0  0  0  0
 36 65  1  0  0  0  0
 36 66  1  0  0  0  0
 36 67  1  0  0  0  0
 37 68  1  0  0  0  0
M  END
> <BIOSOLVEIT.HYDE_ESTIMATED_AFFINITY_LOWER_BOUNDARY [nM]>
688872688.038962

> <BIOSOLVEIT.HYDE_ESTIMATED_AFFINITY_UPPER_BOUNDARY [nM]>
68443574494.339554

> <BIOSOLVEIT.HYDE_LIGAND_EFFICIENCY range: ++, +, 0, -, -->
--

> <BIOSOLVEIT.HYDE_LIGAND_LIPOPHILIC_EFFICIENCY range: ++, +, 0, -, -->
--

> <BIOSOLVEIT.INTER_CLASH range: red, yellow, green>
green

> <BIOSOLVEIT.INTRA_CLASH range: red, yellow, green>
red

> <BIOSOLVEIT.LOGP>
3.2664

> <BIOSOLVEIT.MOLECULAR WEIGHT>
534.637

> <BIOSOLVEIT.MOLECULE_CHECKSUM>
NC43NzYxOzA=

> <BIOSOLVEIT.TORSION_QUALITY range: red, yellow, green, not rotatable>
red

> <BIOSOLVEIT.TPSA>
102.56

$$$$
2IEJ_S48_3
foHydescor03192112173D 1   1.00000     0.00000     0
Hydescorer 1.1.0 fol007
 69 73  0  0  0  0            999 V2000
   17.9703  135.1855  -10.0465 C   0  0  0  0  0  0  0  0  0  0  0  0
   17.8244  135.3939   -8.6473 O   0  0  0  0  0  0  0  0  0  0  0  0
   18.3182  136.5304   -8.0004 C   0  0  0  0  0  0  0  0  0  0  0  0
   18.9478  137.4146   -8.6440 O   0  0  0  0  0  0  0  0  0  0  0  0
   18.1318  136.6769   -6.5210 C   0  0  0  0  0  0  0  0  0  0  0  0
   19.1705  135.9184   -5.7837 N   0  0  0  0  0  0  0  0  0  0  0  0
   18.6723  135.3152   -4.5072 C   0  0  2  0  0  0  0  0  0  0  0  0
   19.7937  134.4755   -3.9171 C   0  0  0  0  0  0  0  0  0  0  0  0
   19.2098  133.8337   -2.6718 C   0  0  0  0  0  0  0  0  0  0  0  0
   19.9432  133.8111   -1.4911 C   0  0  0  0  0  0  0  0  0  0  0  0
   19.3616  133.2493   -0.3578 C   0  0  0  0  0  0  0  0  0  0  0  0
   20.1020  133.2595    0.8891 C   0  0  0  0  0  0  0  0  0  0  0  0
   20.8965  134.3566    1.2038 C   0  0  0  0  0  0  0  0  0  0  0  0
   21.6045  134.3599    2.4010 C   0  0  0  0  0  0  0  0  0  0  0  0
   21.5189  133.2801    3.2726 C   0  0  0  0  0  0  0  0  0  0  0  0
   20.7219  132.1865    2.9492 C   0  0  0  0  0  0  0  0  0  0  0  0
   20.0101  132.1740    1.7543 C   0  0  0  0  0  0  0  0  0  0  0  0
   18.0870  132.6946   -0.4042 C   0  0  0  0  0  0  0  0  0  0  0  0
   17.3912  132.7164   -1.6090 C   0  0  0  0  0  0  0  0  0  0  0  0
   17.9361  133.2803   -2.7574 C   0  0  0  0  0  0  0  0  0  0  0  0
   17.2496  133.3293   -3.9856 N   0  0  0  0  0  0  0  0  0  0  0  0
   16.3755  132.2374   -4.4396 C   0  0  0  0  0  0  0  0  0  0  0  0
   14.9312  132.5306   -4.1327 C   0  0  0  0  0  0  0  0  0  0  0  0
   14.1755  133.5094   -4.7082 C   0  0  0  0  0  0  0  0  0  0  0  0
   12.9331  133.4305   -4.1524 N   0  0  0  0  0  0  0  0  0  0  0  0
   12.9260  132.4491   -3.2759 C   0  0  0  0  0  0  0  0  0  0  0  0
   14.1524  131.8617   -3.2417 N   0  0  0  0  0  0  0  0  0  0  0  0
   14.5621  130.7287   -2.3987 C   0  0  0  0  0  0  0  0  0  0  0  0
   17.4038  134.5338   -4.8180 C   0  0  0  0  0  0  0  0  0  0  0  0
   20.5510  136.9858   -5.4918 S   0  0  0  0  0  0  0  0  0  0  0  0
   20.9507  137.7238   -6.7396 O   0  0  0  0  0  0  0  0  0  0  0  0
   21.7272  136.1549   -5.0600 O   0  0  0  0  0  0  0  0  0  0  0  0
   20.2049  138.1875   -4.2531 C   0  0  0  0  0  0  0  0  0  0  0  0
   20.0268  137.9223   -2.9299 C   0  0  0  0  0  0  0  0  0  0  0  0
   19.7846  139.1256   -2.3461 N   0  0  0  0  0  0  0  0  0  0  0  0
   19.5301  139.3536   -0.9166 C   0  0  0  0  0  0  0  0  0  0  0  0
   19.8199  140.0858   -3.3101 C   0  0  0  0  0  0  0  0  0  0  0  0
   20.0748  139.5272   -4.4703 N   0  3  0  0  0  0  0  0  0  0  0  0
   17.5475  134.3155  -10.2998 H   0  0  0  0  0  0  0  0  0  0  0  0
   17.5238  135.9300  -10.5428 H   0  0  0  0  0  0  0  0  0  0  0  0
   18.9422  135.1645  -10.2808 H   0  0  0  0  0  0  0  0  0  0  0  0
   17.2293  136.3285   -6.2679 H   0  0  0  0  0  0  0  0  0  0  0  0
   18.1963  137.6444   -6.2764 H   0  0  0  0  0  0  0  0  0  0  0  0
   18.4496  136.0511   -3.8680 H   0  0  0  0  0  0  0  0  0  0  0  0
   20.5744  135.0533   -3.6789 H   0  0  0  0  0  0  0  0  0  0  0  0
   20.0844  133.7741   -4.5678 H   0  0  0  0  0  0  0  0  0  0  0  0
   20.8680  134.1900   -1.4565 H   0  0  0  0  0  0  0  0  0  0  0  0
   20.9580  135.1336    0.5772 H   0  0  0  0  0  0  0  0  0  0  0  0
   22.1787  135.1440    2.6364 H   0  0  0  0  0  0  0  0  0  0  0  0
   22.0303  133.2894    4.1318 H   0  0  0  0  0  0  0  0  0  0  0  0
   20.6608  131.4096    3.5758 H   0  0  0  0  0  0  0  0  0  0  0  0
   19.4360  131.3899    1.5187 H   0  0  0  0  0  0  0  0  0  0  0  0
   17.6784  132.2878    0.4128 H   0  0  0  0  0  0  0  0  0  0  0  0
   16.4757  132.3162   -1.6502 H   0  0  0  0  0  0  0  0  0  0  0  0
   16.6422  131.3923   -3.9761 H   0  0  0  0  0  0  0  0  0  0  0  0
   16.4823  132.1237   -5.4274 H   0  0  0  0  0  0  0  0  0  0  0  0
   14.4756  134.1608   -5.4051 H   0  0  0  0  0  0  0  0  0  0  0  0
   12.1401  132.1771   -2.7205 H   0  0  0  0  0  0  0  0  0  0  0  0
   15.5197  130.5062   -2.5817 H   0  0  0  0  0  0  0  0  0  0  0  0
   14.4551  130.9742   -1.4353 H   0  0  0  0  0  0  0  0  0  0  0  0
   13.9900  129.9350   -2.6059 H   0  0  0  0  0  0  0  0  0  0  0  0
   16.6165  135.1307   -4.6633 H   0  0  0  0  0  0  0  0  0  0  0  0
   17.4282  134.2562   -5.7784 H   0  0  0  0  0  0  0  0  0  0  0  0
   20.0660  137.0294   -2.4813 H   0  0  0  0  0  0  0  0  0  0  0  0
   19.3830  140.3296   -0.7558 H   0  0  0  0  0  0  0  0  0  0  0  0
   18.7166  138.8435   -0.6374 H   0  0  0  0  0  0  0  0  0  0  0  0
   20.3175  139.0430   -0.3842 H   0  0  0  0  0  0  0  0  0  0  0  0
   19.6744  141.0634   -3.1584 H   0  0  0  0  0  0  0  0  0  0  0  0
   20.1580  139.9966   -5.3493 H   0  0  0  0  0  0  0  0  0  0  0  0
  1  2  1  0  0  0  0
  2  3  1  0  0  0  0
  3  4  2  0  0  0  0
  3  5  1  0  0  0  0
  5  6  1  0  0  0  0
  6  7  1  0  0  0  0
  7  8  1  0  0  0  0
  8  9  1  0  0  0  0
  9 10  2  0  0  0  0
 10 11  1  0  0  0  0
 11 12  1  0  0  0  0
 12 13  2  0  0  0  0
 13 14  1  0  0  0  0
 14 15  2  0  0  0  0
 15 16  1  0  0  0  0
 16 17  2  0  0  0  0
 11 18  2  0  0  0  0
 18 19  1  0  0  0  0
 19 20  2  0  0  0  0
 20 21  1  0  0  0  0
 21 22  1  0  0  0  0
 22 23  1  0  0  0  0
 23 24  2  0  0  0  0
 24 25  1  0  0  0  0
 25 26  2  0  0  0  0
 26 27  1  0  0  0  0
 27 28  1  0  0  0  0
 21 29  1  0  0  0  0
  6 30  1  0  0  0  0
 30 31  2  0  0  0  0
 30 32  2  0  0  0  0
 30 33  1  0  0  0  0
 33 34  2  0  0  0  0
 34 35  1  0  0  0  0
 35 36  1  0  0  0  0
 35 37  1  0  0  0  0
 37 38  2  0  0  0  0
 29  7  1  0  0  0  0
 38 33  1  0  0  0  0
 20  9  1  0  0  0  0
 27 23  1  0  0  0  0
 17 12  1  0  0  0  0
  1 39  1  0  0  0  0
  1 40  1  0  0  0  0
  1 41  1  0  0  0  0
  5 42  1  0  0  0  0
  5 43  1  0  0  0  0
  7 44  1  0  0  0  0
  8 45  1  0  0  0  0
  8 46  1  0  0  0  0
 10 47  1  0  0  0  0
 13 48  1  0  0  0  0
 14 49  1  0  0  0  0
 15 50  1  0  0  0  0
 16 51  1  0  0  0  0
 17 52  1  0  0  0  0
 18 53  1  0  0  0  0
 19 54  1  0  0  0  0
 22 55  1  0  0  0  0
 22 56  1  0  0  0  0
 24 57  1  0  0  0  0
 26 58  1  0  0  0  0
 28 59  1  0  0  0  0
 28 60  1  0  0  0  0
 28 61  1  0  0  0  0
 29 62  1  0  0  0  0
 29 63  1  0  0  0  0
 34 64  1  0  0  0  0
 36 65  1  0  0  0  0
 36 66  1  0  0  0  0
 36 67  1  0  0  0  0
 37 68  1  0  0  0  0
 38 69  1  0  0  0  0
M  CHG  1  38   1
M  END
> <BIOSOLVEIT.HYDE_ESTIMATED_AFFINITY_LOWER_BOUNDARY [nM]>
1086142107554.203247

> <BIOSOLVEIT.HYDE_ESTIMATED_AFFINITY_UPPER_BOUNDARY [nM]>
107914640165877.062500

> <BIOSOLVEIT.HYDE_LIGAND_EFFICIENCY range: ++, +, 0, -, -->
--

> <BIOSOLVEIT.HYDE_LIGAND_LIPOPHILIC_EFFICIENCY range: ++, +, 0, -, -->
--

> <BIOSOLVEIT.INTER_CLASH range: red, yellow, green>
green

> <BIOSOLVEIT.INTRA_CLASH range: red, yellow, green>
yellow

> <BIOSOLVEIT.LOGP>
2.6855

> <BIOSOLVEIT.MOLECULAR WEIGHT>
535.645

> <BIOSOLVEIT.MOLECULE_CHECKSUM>
MjMuMDI4OTsw

> <BIOSOLVEIT.TORSION_QUALITY range: red, yellow, green, not rotatable>
yellow

> <BIOSOLVEIT.TPSA>
103.81

$$$$
