1JCQ_739_1
foHydescor03192112113D 1   1.00000     0.00000     0
Hydescorer 1.1.0 fol007
 74 74  0  0  0  0            999 V2000
   18.5058  132.5007   -0.3314 C   0  0  0  0  0  0  0  0  0  0  0  0
   18.6825  132.7493    1.1651 C   0  0  0  0  0  0  0  0  0  0  0  0
   20.0805  132.3619    1.7241 C   0  0  1  0  0  0  0  0  0  0  0  0
   20.7286  131.3407    0.7688 C   0  0  0  0  0  0  0  0  0  0  0  0
   21.0786  133.5565    1.9893 C   0  0  1  0  0  0  0  0  0  0  0  0
   20.3296  134.9001    2.1846 C   0  0  0  0  0  0  0  0  0  0  0  0
   20.5872  135.7913    1.1122 O   0  0  0  0  0  0  0  0  0  0  0  0
   21.8966  136.3408    1.1767 C   0  0  1  0  0  0  0  0  0  0  0  0
   22.5506  136.3310   -0.2179 C   0  0  0  0  0  0  0  0  0  0  0  0
   21.6965  135.6158   -1.2309 C   0  0  0  0  0  0  0  0  0  0  0  0
   20.7529  136.3332   -1.9584 C   0  0  0  0  0  0  0  0  0  0  0  0
   19.9668  135.6665   -2.8922 C   0  0  0  0  0  0  0  0  0  0  0  0
   20.1222  134.3000   -3.0963 C   0  0  0  0  0  0  0  0  0  0  0  0
   21.0685  133.5903   -2.3636 C   0  0  0  0  0  0  0  0  0  0  0  0
   21.8593  134.2483   -1.4275 C   0  0  0  0  0  0  0  0  0  0  0  0
   21.7942  137.7631    1.6508 C   0  0  0  0  0  0  0  0  0  0  0  0
   22.0943  138.7041    0.8655 O   0  0  0  0  0  0  0  0  0  0  0  0
   21.4048  138.0466    3.0032 N   0  0  0  0  0  0  0  0  0  0  0  0
   21.3370  139.4117    3.5304 C   0  0  1  0  0  0  0  0  0  0  0  0
   19.9614  140.0272    3.2132 C   0  0  0  0  0  0  0  0  0  0  0  0
   18.8064  139.1357    3.6849 C   0  0  0  0  0  0  0  0  0  0  0  0
   17.7374  138.7073    2.3207 S   0  0  0  0  0  0  0  0  0  0  0  0
   16.4629  137.6090    2.8966 C   0  0  0  0  0  0  0  0  0  0  0  0
   17.1049  139.9500    1.7599 O   0  0  0  0  0  0  0  0  0  0  0  0
   18.5338  138.0227    1.2455 O   0  0  0  0  0  0  0  0  0  0  0  0
   21.5993  139.3899    5.0095 C   0  0  0  0  0  0  0  0  0  0  0  0
   22.1103  140.3890    5.5819 O   0  0  0  0  0  0  0  0  0  0  0  0
   21.2946  138.2558    5.7517 O   0  5  0  0  0  0  0  0  0  0  0  0
   22.0338  133.3424    3.1127 N   0  3  0  0  0  0  0  0  0  0  0  0
   21.9966  134.3070    4.2342 C   0  0  0  0  0  0  0  0  0  0  0  0
   22.9317  133.9762    5.4360 C   0  0  2  0  0  0  0  0  0  0  0  0
   22.2517  133.0240    6.3262 N   0  3  0  0  0  0  0  0  0  0  0  0
   23.3200  135.2412    6.2401 C   0  0  0  0  0  0  0  0  0  0  0  0
   24.0142  136.5107    5.2038 S   0  0  0  0  0  0  0  0  0  0  0  0
   17.5849  132.7749   -0.6085 H   0  0  0  0  0  0  0  0  0  0  0  0
   19.1801  133.0358   -0.8402 H   0  0  0  0  0  0  0  0  0  0  0  0
   18.6366  131.5285   -0.5255 H   0  0  0  0  0  0  0  0  0  0  0  0
   17.9922  132.2157    1.6538 H   0  0  0  0  0  0  0  0  0  0  0  0
   18.5358  133.7231    1.3391 H   0  0  0  0  0  0  0  0  0  0  0  0
   19.9329  131.8988    2.5980 H   0  0  0  0  0  0  0  0  0  0  0  0
   21.6296  131.0832    1.1177 H   0  0  0  0  0  0  0  0  0  0  0  0
   20.1498  130.5275    0.7077 H   0  0  0  0  0  0  0  0  0  0  0  0
   20.8267  131.7489   -0.1388 H   0  0  0  0  0  0  0  0  0  0  0  0
   21.6304  133.6558    1.1613 H   0  0  0  0  0  0  0  0  0  0  0  0
   20.6332  135.3217    3.0391 H   0  0  0  0  0  0  0  0  0  0  0  0
   19.3467  134.7218    2.2317 H   0  0  0  0  0  0  0  0  0  0  0  0
   22.4545  135.8109    1.8154 H   0  0  0  0  0  0  0  0  0  0  0  0
   23.4357  135.8695   -0.1572 H   0  0  0  0  0  0  0  0  0  0  0  0
   22.6869  137.2750   -0.5182 H   0  0  0  0  0  0  0  0  0  0  0  0
   20.6410  137.3161   -1.8118 H   0  0  0  0  0  0  0  0  0  0  0  0
   19.2854  136.1733   -3.4202 H   0  0  0  0  0  0  0  0  0  0  0  0
   19.5539  133.8272   -3.7696 H   0  0  0  0  0  0  0  0  0  0  0  0
   21.1799  132.6075   -2.5101 H   0  0  0  0  0  0  0  0  0  0  0  0
   22.5406  133.7416   -0.8992 H   0  0  0  0  0  0  0  0  0  0  0  0
   21.1715  137.2846    3.6073 H   0  0  0  0  0  0  0  0  0  0  0  0
   22.0445  139.9622    3.0873 H   0  0  0  0  0  0  0  0  0  0  0  0
   19.8862  140.1557    2.2244 H   0  0  0  0  0  0  0  0  0  0  0  0
   19.8918  140.9137    3.6708 H   0  0  0  0  0  0  0  0  0  0  0  0
   18.2753  139.6258    4.3761 H   0  0  0  0  0  0  0  0  0  0  0  0
   19.1804  138.2984    4.0836 H   0  0  0  0  0  0  0  0  0  0  0  0
   15.8621  137.3669    2.1348 H   0  0  0  0  0  0  0  0  0  0  0  0
   16.8804  136.7798    3.2685 H   0  0  0  0  0  0  0  0  0  0  0  0
   15.9296  138.0627    3.6106 H   0  0  0  0  0  0  0  0  0  0  0  0
   22.9571  133.3644    2.7292 H   0  0  0  0  0  0  0  0  0  0  0  0
   21.8519  132.4352    3.4919 H   0  0  0  0  0  0  0  0  0  0  0  0
   21.0577  134.3456    4.5762 H   0  0  0  0  0  0  0  0  0  0  0  0
   22.2587  135.2038    3.8778 H   0  0  0  0  0  0  0  0  0  0  0  0
   23.7656  133.5494    5.0862 H   0  0  0  0  0  0  0  0  0  0  0  0
   22.8428  132.2325    6.4816 H   0  0  0  0  0  0  0  0  0  0  0  0
   22.0528  133.4681    7.1998 H   0  0  0  0  0  0  0  0  0  0  0  0
   21.3971  132.7237    5.9027 H   0  0  0  0  0  0  0  0  0  0  0  0
   23.9942  134.9874    6.9336 H   0  0  0  0  0  0  0  0  0  0  0  0
   22.5017  135.6023    6.6872 H   0  0  0  0  0  0  0  0  0  0  0  0
   24.2218  137.3169    5.7579 H   0  0  0  0  0  0  0  0  0  0  0  0
  1  2  1  0  0  0  0
  2  3  1  0  0  0  0
  3  4  1  0  0  0  0
  3  5  1  0  0  0  0
  5  6  1  0  0  0  0
  6  7  1  0  0  0  0
  7  8  1  0  0  0  0
  8  9  1  0  0  0  0
  9 10  1  0  0  0  0
 10 11  2  0  0  0  0
 11 12  1  0  0  0  0
 12 13  2  0  0  0  0
 13 14  1  0  0  0  0
 14 15  2  0  0  0  0
  8 16  1  0  0  0  0
 16 17  2  0  0  0  0
 16 18  1  0  0  0  0
 18 19  1  0  0  0  0
 19 20  1  0  0  0  0
 20 21  1  0  0  0  0
 21 22  1  0  0  0  0
 22 23  1  0  0  0  0
 22 24  2  0  0  0  0
 22 25  2  0  0  0  0
 19 26  1  0  0  0  0
 26 27  2  0  0  0  0
 26 28  1  0  0  0  0
  5 29  1  0  0  0  0
 29 30  1  0  0  0  0
 30 31  1  0  0  0  0
 31 32  1  0  0  0  0
 31 33  1  0  0  0  0
 33 34  1  0  0  0  0
 15 10  1  0  0  0  0
  1 35  1  0  0  0  0
  1 36  1  0  0  0  0
  1 37  1  0  0  0  0
  2 38  1  0  0  0  0
  2 39  1  0  0  0  0
  3 40  1  0  0  0  0
  4 41  1  0  0  0  0
  4 42  1  0  0  0  0
  4 43  1  0  0  0  0
  5 44  1  0  0  0  0
  6 45  1  0  0  0  0
  6 46  1  0  0  0  0
  8 47  1  0  0  0  0
  9 48  1  0  0  0  0
  9 49  1  0  0  0  0
 11 50  1  0  0  0  0
 12 51  1  0  0  0  0
 13 52  1  0  0  0  0
 14 53  1  0  0  0  0
 15 54  1  0  0  0  0
 18 55  1  0  0  0  0
 19 56  1  0  0  0  0
 20 57  1  0  0  0  0
 20 58  1  0  0  0  0
 21 59  1  0  0  0  0
 21 60  1  0  0  0  0
 23 61  1  0  0  0  0
 23 62  1  0  0  0  0
 23 63  1  0  0  0  0
 29 64  1  0  0  0  0
 29 65  1  0  0  0  0
 30 66  1  0  0  0  0
 30 67  1  0  0  0  0
 31 68  1  0  0  0  0
 32 69  1  0  0  0  0
 32 70  1  0  0  0  0
 32 71  1  0  0  0  0
 33 72  1  0  0  0  0
 33 73  1  0  0  0  0
 34 74  1  0  0  0  0
M  CHG  3  28  -1  29   1  32   1
M  END
> <BIOSOLVEIT.HYDE_ESTIMATED_AFFINITY_LOWER_BOUNDARY [nM]>
16853764.010767

> <BIOSOLVEIT.HYDE_ESTIMATED_AFFINITY_UPPER_BOUNDARY [nM]>
1674521101.808717

> <BIOSOLVEIT.HYDE_LIGAND_EFFICIENCY range: ++, +, 0, -, -->
--

> <BIOSOLVEIT.HYDE_LIGAND_LIPOPHILIC_EFFICIENCY range: ++, +, 0, -, -->
--

> <BIOSOLVEIT.INTER_CLASH range: red, yellow, green>
green

> <BIOSOLVEIT.INTRA_CLASH range: red, yellow, green>
green

> <BIOSOLVEIT.LOGP>
-1.1671

> <BIOSOLVEIT.MOLECULAR WEIGHT>
518.714

> <BIOSOLVEIT.MOLECULE_CHECKSUM>
LTQuNDIyMDM7MC4xMzAwNg==

> <BIOSOLVEIT.TORSION_QUALITY range: red, yellow, green, not rotatable>
red

> <BIOSOLVEIT.TPSA>
156.85

$$$$
1JCQ_739_2
foHydescor03192112113D 1   1.00000     0.00000     0
Hydescorer 1.1.0 fol007
 75 75  0  0  0  0            999 V2000
   18.2841  133.3344    0.1793 C   0  0  0  0  0  0  0  0  0  0  0  0
   18.5521  133.5401    1.6688 C   0  0  0  0  0  0  0  0  0  0  0  0
   19.7291  132.6977    2.2362 C   0  0  1  0  0  0  0  0  0  0  0  0
   19.6491  131.2766    1.6453 C   0  0  0  0  0  0  0  0  0  0  0  0
   21.1767  133.2892    2.0161 C   0  0  1  0  0  0  0  0  0  0  0  0
   21.1305  134.7729    1.5677 C   0  0  0  0  0  0  0  0  0  0  0  0
   21.3792  134.8961    0.1772 O   0  0  0  0  0  0  0  0  0  0  0  0
   22.6683  135.4324   -0.0897 C   0  0  1  0  0  0  0  0  0  0  0  0
   22.9291  135.4694   -1.6075 C   0  0  0  0  0  0  0  0  0  0  0  0
   21.7056  135.0807   -2.3944 C   0  0  0  0  0  0  0  0  0  0  0  0
   20.8492  136.0720   -2.8614 C   0  0  0  0  0  0  0  0  0  0  0  0
   19.7207  135.7060   -3.5872 C   0  0  0  0  0  0  0  0  0  0  0  0
   19.4518  134.3662   -3.8432 C   0  0  0  0  0  0  0  0  0  0  0  0
   20.3140  133.3812   -3.3718 C   0  0  0  0  0  0  0  0  0  0  0  0
   21.4452  133.7373   -2.6450 C   0  0  0  0  0  0  0  0  0  0  0  0
   22.7202  136.8368    0.4425 C   0  0  0  0  0  0  0  0  0  0  0  0
   22.2843  137.7868   -0.2644 O   0  0  0  0  0  0  0  0  0  0  0  0
   23.3069  137.1008    1.7259 N   0  0  0  0  0  0  0  0  0  0  0  0
   23.4274  138.4556    2.2698 C   0  0  1  0  0  0  0  0  0  0  0  0
   22.2546  138.7418    3.2260 C   0  0  0  0  0  0  0  0  0  0  0  0
   22.2697  140.1849    3.7439 C   0  0  0  0  0  0  0  0  0  0  0  0
   21.5282  141.2930    2.5567 S   0  0  0  0  0  0  0  0  0  0  0  0
   19.8817  140.7351    2.1823 C   0  0  0  0  0  0  0  0  0  0  0  0
   21.4631  142.6817    3.1280 O   0  0  0  0  0  0  0  0  0  0  0  0
   22.3454  141.3090    1.2955 O   0  0  0  0  0  0  0  0  0  0  0  0
   24.7502  138.5985    2.9675 C   0  0  0  0  0  0  0  0  0  0  0  0
   25.3504  139.7060    2.9770 O   0  0  0  0  0  0  0  0  0  0  0  0
   25.3276  137.5002    3.5918 O   0  0  0  0  0  0  0  0  0  0  0  0
   22.1015  133.1400    3.1748 N   0  3  0  0  0  0  0  0  0  0  0  0
   22.0814  134.2010    4.2060 C   0  0  0  0  0  0  0  0  0  0  0  0
   22.9511  133.9264    5.4695 C   0  0  2  0  0  0  0  0  0  0  0  0
   22.2329  132.9985    6.3553 N   0  3  0  0  0  0  0  0  0  0  0  0
   23.2801  135.2247    6.2463 C   0  0  0  0  0  0  0  0  0  0  0  0
   22.1696  136.5540    5.8367 S   0  0  0  0  0  0  0  0  0  0  0  0
   17.5163  133.9093   -0.1037 H   0  0  0  0  0  0  0  0  0  0  0  0
   19.0987  133.5850   -0.3437 H   0  0  0  0  0  0  0  0  0  0  0  0
   18.0616  132.3743    0.0102 H   0  0  0  0  0  0  0  0  0  0  0  0
   17.7230  133.2962    2.1717 H   0  0  0  0  0  0  0  0  0  0  0  0
   18.7601  134.5069    1.8178 H   0  0  0  0  0  0  0  0  0  0  0  0
   19.5881  132.6174    3.2229 H   0  0  0  0  0  0  0  0  0  0  0  0
   20.4019  130.7240    2.0030 H   0  0  0  0  0  0  0  0  0  0  0  0
   18.7776  130.8579    1.9007 H   0  0  0  0  0  0  0  0  0  0  0  0
   19.7160  131.3257    0.6487 H   0  0  0  0  0  0  0  0  0  0  0  0
   21.5822  132.7756    1.2600 H   0  0  0  0  0  0  0  0  0  0  0  0
   21.8255  135.2872    2.0702 H   0  0  0  0  0  0  0  0  0  0  0  0
   20.2260  135.1473    1.7718 H   0  0  0  0  0  0  0  0  0  0  0  0
   23.3662  134.8746    0.3597 H   0  0  0  0  0  0  0  0  0  0  0  0
   23.6693  134.8330   -1.8245 H   0  0  0  0  0  0  0  0  0  0  0  0
   23.1998  136.3964   -1.8670 H   0  0  0  0  0  0  0  0  0  0  0  0
   21.0424  137.0358   -2.6777 H   0  0  0  0  0  0  0  0  0  0  0  0
   19.0985  136.4112   -3.9272 H   0  0  0  0  0  0  0  0  0  0  0  0
   18.6387  134.1104   -4.3661 H   0  0  0  0  0  0  0  0  0  0  0  0
   20.1205  132.4175   -3.5555 H   0  0  0  0  0  0  0  0  0  0  0  0
   22.0672  133.0321   -2.3047 H   0  0  0  0  0  0  0  0  0  0  0  0
   23.6456  136.3319    2.2683 H   0  0  0  0  0  0  0  0  0  0  0  0
   23.3914  139.1091    1.5136 H   0  0  0  0  0  0  0  0  0  0  0  0
   22.3155  138.1188    4.0060 H   0  0  0  0  0  0  0  0  0  0  0  0
   21.3957  138.5832    2.7390 H   0  0  0  0  0  0  0  0  0  0  0  0
   23.2158  140.4647    3.9070 H   0  0  0  0  0  0  0  0  0  0  0  0
   21.7561  140.2310    4.6006 H   0  0  0  0  0  0  0  0  0  0  0  0
   19.4632  141.3537    1.5174 H   0  0  0  0  0  0  0  0  0  0  0  0
   19.9214  139.8120    1.7998 H   0  0  0  0  0  0  0  0  0  0  0  0
   19.3345  140.7257    3.0193 H   0  0  0  0  0  0  0  0  0  0  0  0
   23.0320  133.0932    2.8113 H   0  0  0  0  0  0  0  0  0  0  0  0
   21.8770  132.2774    3.6281 H   0  0  0  0  0  0  0  0  0  0  0  0
   21.1347  134.3225    4.5043 H   0  0  0  0  0  0  0  0  0  0  0  0
   22.4091  135.0465    3.7844 H   0  0  0  0  0  0  0  0  0  0  0  0
   23.8079  133.4980    5.1826 H   0  0  0  0  0  0  0  0  0  0  0  0
   22.7965  132.1885    6.5169 H   0  0  0  0  0  0  0  0  0  0  0  0
   22.0411  133.4505    7.2264 H   0  0  0  0  0  0  0  0  0  0  0  0
   21.3725  132.7255    5.9248 H   0  0  0  0  0  0  0  0  0  0  0  0
   24.2138  135.5052    6.0239 H   0  0  0  0  0  0  0  0  0  0  0  0
   23.2123  135.0392    7.2266 H   0  0  0  0  0  0  0  0  0  0  0  0
   22.4326  137.3757    6.3423 H   0  0  0  0  0  0  0  0  0  0  0  0
   24.7810  136.9281    4.2034 H   0  0  0  0  0  0  0  0  0  0  0  0
  1  2  1  0  0  0  0
  2  3  1  0  0  0  0
  3  4  1  0  0  0  0
  3  5  1  0  0  0  0
  5  6  1  0  0  0  0
  6  7  1  0  0  0  0
  7  8  1  0  0  0  0
  8  9  1  0  0  0  0
  9 10  1  0  0  0  0
 10 11  2  0  0  0  0
 11 12  1  0  0  0  0
 12 13  2  0  0  0  0
 13 14  1  0  0  0  0
 14 15  2  0  0  0  0
  8 16  1  0  0  0  0
 16 17  2  0  0  0  0
 16 18  1  0  0  0  0
 18 19  1  0  0  0  0
 19 20  1  0  0  0  0
 20 21  1  0  0  0  0
 21 22  1  0  0  0  0
 22 23  1  0  0  0  0
 22 24  2  0  0  0  0
 22 25  2  0  0  0  0
 19 26  1  0  0  0  0
 26 27  2  0  0  0  0
 26 28  1  0  0  0  0
  5 29  1  0  0  0  0
 29 30  1  0  0  0  0
 30 31  1  0  0  0  0
 31 32  1  0  0  0  0
 31 33  1  0  0  0  0
 33 34  1  0  0  0  0
 15 10  1  0  0  0  0
  1 35  1  0  0  0  0
  1 36  1  0  0  0  0
  1 37  1  0  0  0  0
  2 38  1  0  0  0  0
  2 39  1  0  0  0  0
  3 40  1  0  0  0  0
  4 41  1  0  0  0  0
  4 42  1  0  0  0  0
  4 43  1  0  0  0  0
  5 44  1  0  0  0  0
  6 45  1  0  0  0  0
  6 46  1  0  0  0  0
  8 47  1  0  0  0  0
  9 48  1  0  0  0  0
  9 49  1  0  0  0  0
 11 50  1  0  0  0  0
 12 51  1  0  0  0  0
 13 52  1  0  0  0  0
 14 53  1  0  0  0  0
 15 54  1  0  0  0  0
 18 55  1  0  0  0  0
 19 56  1  0  0  0  0
 20 57  1  0  0  0  0
 20 58  1  0  0  0  0
 21 59  1  0  0  0  0
 21 60  1  0  0  0  0
 23 61  1  0  0  0  0
 23 62  1  0  0  0  0
 23 63  1  0  0  0  0
 29 64  1  0  0  0  0
 29 65  1  0  0  0  0
 30 66  1  0  0  0  0
 30 67  1  0  0  0  0
 31 68  1  0  0  0  0
 32 69  1  0  0  0  0
 32 70  1  0  0  0  0
 32 71  1  0  0  0  0
 33 72  1  0  0  0  0
 33 73  1  0  0  0  0
 34 74  1  0  0  0  0
 28 75  1  0  0  0  0
M  CHG  2  29   1  32   1
M  END
> <BIOSOLVEIT.HYDE_ESTIMATED_AFFINITY_LOWER_BOUNDARY [nM]>
1820330953.003452

> <BIOSOLVEIT.HYDE_ESTIMATED_AFFINITY_UPPER_BOUNDARY [nM]>
180860642829.255676

> <BIOSOLVEIT.HYDE_LIGAND_EFFICIENCY range: ++, +, 0, -, -->
--

> <BIOSOLVEIT.HYDE_LIGAND_LIPOPHILIC_EFFICIENCY range: ++, +, 0, -, -->
--

> <BIOSOLVEIT.INTER_CLASH range: red, yellow, green>
green

> <BIOSOLVEIT.INTRA_CLASH range: red, yellow, green>
green

> <BIOSOLVEIT.LOGP>
0.1676

> <BIOSOLVEIT.MOLECULAR WEIGHT>
519.722

> <BIOSOLVEIT.MOLECULE_CHECKSUM>
Ny4xODQ5NDsw

> <BIOSOLVEIT.TORSION_QUALITY range: red, yellow, green, not rotatable>
red

> <BIOSOLVEIT.TPSA>
154.02

$$$$
1JCQ_739_3
foHydescor03192112113D 1   1.00000     0.00000     0
Hydescorer 1.1.0 fol007
 74 74  0  0  0  0            999 V2000
   18.0777  134.5822    1.6934 C   0  0  0  0  0  0  0  0  0  0  0  0
   18.8960  133.6191    2.5510 C   0  0  0  0  0  0  0  0  0  0  0  0
   19.6955  132.5562    1.7459 C   0  0  1  0  0  0  0  0  0  0  0  0
   18.8985  132.1959    0.4769 C   0  0  0  0  0  0  0  0  0  0  0  0
   21.1751  132.9470    1.3570 C   0  0  1  0  0  0  0  0  0  0  0  0
   21.2827  134.4307    0.9192 C   0  0  0  0  0  0  0  0  0  0  0  0
   21.1117  134.5655   -0.4820 O   0  0  0  0  0  0  0  0  0  0  0  0
   22.2521  135.1397   -1.1068 C   0  0  1  0  0  0  0  0  0  0  0  0
   22.2812  134.7780   -2.6039 C   0  0  0  0  0  0  0  0  0  0  0  0
   20.9236  134.3626   -3.1051 C   0  0  0  0  0  0  0  0  0  0  0  0
   20.0661  135.3222   -3.6325 C   0  0  0  0  0  0  0  0  0  0  0  0
   18.8132  134.9318   -4.0933 C   0  0  0  0  0  0  0  0  0  0  0  0
   18.4225  133.5992   -4.0279 C   0  0  0  0  0  0  0  0  0  0  0  0
   19.2869  132.6461   -3.4983 C   0  0  0  0  0  0  0  0  0  0  0  0
   20.5419  133.0267   -3.0349 C   0  0  0  0  0  0  0  0  0  0  0  0
   22.1671  136.6342   -0.9738 C   0  0  0  0  0  0  0  0  0  0  0  0
   21.6606  137.3143   -1.9081 O   0  0  0  0  0  0  0  0  0  0  0  0
   22.7032  137.2868    0.1870 N   0  0  0  0  0  0  0  0  0  0  0  0
   22.6908  138.7433    0.3442 C   0  0  1  0  0  0  0  0  0  0  0  0
   21.3228  139.1994    0.8847 C   0  0  0  0  0  0  0  0  0  0  0  0
   20.8617  138.3544    2.0783 C   0  0  0  0  0  0  0  0  0  0  0  0
   19.2455  138.8701    2.6344 S   0  0  0  0  0  0  0  0  0  0  0  0
   18.7496  137.8608    4.0121 C   0  0  0  0  0  0  0  0  0  0  0  0
   19.2907  140.3093    3.0651 O   0  0  0  0  0  0  0  0  0  0  0  0
   18.2495  138.7126    1.5200 O   0  0  0  0  0  0  0  0  0  0  0  0
   23.8071  139.1567    1.2605 C   0  0  0  0  0  0  0  0  0  0  0  0
   24.2343  140.3418    1.2519 O   0  0  0  0  0  0  0  0  0  0  0  0
   24.3874  138.2248    2.1118 O   0  5  0  0  0  0  0  0  0  0  0  0
   22.1996  132.6516    2.3979 N   0  3  0  0  0  0  0  0  0  0  0  0
   21.7403  132.5583    3.8014 C   0  0  0  0  0  0  0  0  0  0  0  0
   22.4788  133.4854    4.8129 C   0  0  2  0  0  0  0  0  0  0  0  0
   22.2377  132.9960    6.1781 N   0  3  0  0  0  0  0  0  0  0  0  0
   22.0101  134.9574    4.7065 C   0  0  0  0  0  0  0  0  0  0  0  0
   23.1347  135.9547    3.7534 S   0  0  0  0  0  0  0  0  0  0  0  0
   17.5970  135.2294    2.2851 H   0  0  0  0  0  0  0  0  0  0  0  0
   18.6881  135.0823    1.0790 H   0  0  0  0  0  0  0  0  0  0  0  0
   17.4124  134.0657    1.1544 H   0  0  0  0  0  0  0  0  0  0  0  0
   18.2696  133.1391    3.1653 H   0  0  0  0  0  0  0  0  0  0  0  0
   19.5453  134.1558    3.0899 H   0  0  0  0  0  0  0  0  0  0  0  0
   19.7445  131.7318    2.3098 H   0  0  0  0  0  0  0  0  0  0  0  0
   19.4028  131.5121   -0.0504 H   0  0  0  0  0  0  0  0  0  0  0  0
   18.0069  131.8251    0.7372 H   0  0  0  0  0  0  0  0  0  0  0  0
   18.7686  133.0166   -0.0795 H   0  0  0  0  0  0  0  0  0  0  0  0
   21.4144  132.3961    0.5574 H   0  0  0  0  0  0  0  0  0  0  0  0
   22.1843  134.7812    1.1730 H   0  0  0  0  0  0  0  0  0  0  0  0
   20.5753  134.9608    1.3867 H   0  0  0  0  0  0  0  0  0  0  0  0
   23.0841  134.8076   -0.6625 H   0  0  0  0  0  0  0  0  0  0  0  0
   22.9223  134.0231   -2.7420 H   0  0  0  0  0  0  0  0  0  0  0  0
   22.5882  135.5753   -3.1236 H   0  0  0  0  0  0  0  0  0  0  0  0
   20.3469  136.2808   -3.6797 H   0  0  0  0  0  0  0  0  0  0  0  0
   18.1893  135.6143   -4.4743 H   0  0  0  0  0  0  0  0  0  0  0  0
   17.5203  133.3257   -4.3614 H   0  0  0  0  0  0  0  0  0  0  0  0
   19.0058  131.6876   -3.4510 H   0  0  0  0  0  0  0  0  0  0  0  0
   21.1657  132.3444   -2.6537 H   0  0  0  0  0  0  0  0  0  0  0  0
   23.0996  136.7270    0.9147 H   0  0  0  0  0  0  0  0  0  0  0  0
   22.8382  139.1638   -0.5510 H   0  0  0  0  0  0  0  0  0  0  0  0
   20.6451  139.1212    0.1536 H   0  0  0  0  0  0  0  0  0  0  0  0
   21.3926  140.1542    1.1737 H   0  0  0  0  0  0  0  0  0  0  0  0
   21.5156  138.4610    2.8273 H   0  0  0  0  0  0  0  0  0  0  0  0
   20.8228  137.3935    1.8040 H   0  0  0  0  0  0  0  0  0  0  0  0
   17.8445  138.1471    4.3263 H   0  0  0  0  0  0  0  0  0  0  0  0
   18.7163  136.9025    3.7283 H   0  0  0  0  0  0  0  0  0  0  0  0
   19.4092  137.9653    4.7563 H   0  0  0  0  0  0  0  0  0  0  0  0
   22.8874  133.3763    2.3553 H   0  0  0  0  0  0  0  0  0  0  0  0
   22.6224  131.7766    2.1623 H   0  0  0  0  0  0  0  0  0  0  0  0
   21.8635  131.6130    4.1035 H   0  0  0  0  0  0  0  0  0  0  0  0
   20.7680  132.7912    3.8233 H   0  0  0  0  0  0  0  0  0  0  0  0
   23.4605  133.4467    4.6264 H   0  0  0  0  0  0  0  0  0  0  0  0
   23.1115  132.7807    6.6141 H   0  0  0  0  0  0  0  0  0  0  0  0
   21.7662  133.7017    6.7068 H   0  0  0  0  0  0  0  0  0  0  0  0
   21.6715  132.1725    6.1418 H   0  0  0  0  0  0  0  0  0  0  0  0
   21.9413  135.3407    5.6275 H   0  0  0  0  0  0  0  0  0  0  0  0
   21.1113  134.9782    4.2688 H   0  0  0  0  0  0  0  0  0  0  0  0
   24.0424  135.9263    4.1722 H   0  0  0  0  0  0  0  0  0  0  0  0
  1  2  1  0  0  0  0
  2  3  1  0  0  0  0
  3  4  1  0  0  0  0
  3  5  1  0  0  0  0
  5  6  1  0  0  0  0
  6  7  1  0  0  0  0
  7  8  1  0  0  0  0
  8  9  1  0  0  0  0
  9 10  1  0  0  0  0
 10 11  2  0  0  0  0
 11 12  1  0  0  0  0
 12 13  2  0  0  0  0
 13 14  1  0  0  0  0
 14 15  2  0  0  0  0
  8 16  1  0  0  0  0
 16 17  2  0  0  0  0
 16 18  1  0  0  0  0
 18 19  1  0  0  0  0
 19 20  1  0  0  0  0
 20 21  1  0  0  0  0
 21 22  1  0  0  0  0
 22 23  1  0  0  0  0
 22 24  2  0  0  0  0
 22 25  2  0  0  0  0
 19 26  1  0  0  0  0
 26 27  2  0  0  0  0
 26 28  1  0  0  0  0
  5 29  1  0  0  0  0
 29 30  1  0  0  0  0
 30 31  1  0  0  0  0
 31 32  1  0  0  0  0
 31 33  1  0  0  0  0
 33 34  1  0  0  0  0
 15 10  1  0  0  0  0
  1 35  1  0  0  0  0
  1 36  1  0  0  0  0
  1 37  1  0  0  0  0
  2 38  1  0  0  0  0
  2 39  1  0  0  0  0
  3 40  1  0  0  0  0
  4 41  1  0  0  0  0
  4 42  1  0  0  0  0
  4 43  1  0  0  0  0
  5 44  1  0  0  0  0
  6 45  1  0  0  0  0
  6 46  1  0  0  0  0
  8 47  1  0  0  0  0
  9 48  1  0  0  0  0
  9 49  1  0  0  0  0
 11 50  1  0  0  0  0
 12 51  1  0  0  0  0
 13 52  1  0  0  0  0
 14 53  1  0  0  0  0
 15 54  1  0  0  0  0
 18 55  1  0  0  0  0
 19 56  1  0  0  0  0
 20 57  1  0  0  0  0
 20 58  1  0  0  0  0
 21 59  1  0  0  0  0
 21 60  1  0  0  0  0
 23 61  1  0  0  0  0
 23 62  1  0  0  0  0
 23 63  1  0  0  0  0
 29 64  1  0  0  0  0
 29 65  1  0  0  0  0
 30 66  1  0  0  0  0
 30 67  1  0  0  0  0
 31 68  1  0  0  0  0
 32 69  1  0  0  0  0
 32 70  1  0  0  0  0
 32 71  1  0  0  0  0
 33 72  1  0  0  0  0
 33 73  1  0  0  0  0
 34 74  1  0  0  0  0
M  CHG  3  28  -1  29   1  32   1
M  END
> <BIOSOLVEIT.HYDE_ESTIMATED_AFFINITY_LOWER_BOUNDARY [nM]>
4509632.044385

> <BIOSOLVEIT.HYDE_ESTIMATED_AFFINITY_UPPER_BOUNDARY [nM]>
448058606.664456

> <BIOSOLVEIT.HYDE_LIGAND_EFFICIENCY range: ++, +, 0, -, -->
--

> <BIOSOLVEIT.HYDE_LIGAND_LIPOPHILIC_EFFICIENCY range: ++, +, 0, -, -->
-

> <BIOSOLVEIT.INTER_CLASH range: red, yellow, green>
green

> <BIOSOLVEIT.INTRA_CLASH range: red, yellow, green>
green

> <BIOSOLVEIT.LOGP>
-1.1671

> <BIOSOLVEIT.MOLECULAR WEIGHT>
518.714

> <BIOSOLVEIT.MOLECULE_CHECKSUM>
LTcuNjkwMTg7MC4yMjYxODI=

> <BIOSOLVEIT.TORSION_QUALITY range: red, yellow, green, not rotatable>
red

> <BIOSOLVEIT.TPSA>
156.85

$$$$
1SA4_JAN_1
foHydescor03192112113D 1   1.00000     0.00000     0
Hydescorer 1.1.0 fol007
 56 60  0  0  0  0            999 V2000
   22.6483  136.9924    2.6025 C   0  0  0  0  0  0  0  0  0  0  0  0
   23.0411  136.7909    4.0051 N   0  0  0  0  0  0  0  0  0  0  0  0
   24.3167  136.5964    4.4482 C   0  0  0  0  0  0  0  0  0  0  0  0
   24.2708  136.4576    5.7550 N   0  0  0  0  0  0  0  0  0  0  0  0
   22.9715  136.5607    6.1648 C   0  0  0  0  0  0  0  0  0  0  0  0
   22.1893  136.7705    5.0668 C   0  0  0  0  0  0  0  0  0  0  0  0
   20.6612  136.9524    5.0415 C   0  0  1  0  0  0  0  0  0  0  0  0
   20.1156  136.5432    6.3618 N   0  0  0  0  0  0  0  0  0  0  0  0
   20.2862  138.4289    4.7787 C   0  0  0  0  0  0  0  0  0  0  0  0
   21.2192  139.2728    4.1839 C   0  0  0  0  0  0  0  0  0  0  0  0
   20.8971  140.6038    3.9397 C   0  0  0  0  0  0  0  0  0  0  0  0
   19.6380  141.0730    4.2978 C   0  0  0  0  0  0  0  0  0  0  0  0
   19.2102  142.7737    3.9922 Cl  0  0  0  0  0  0  0  0  0  0  0  0
   18.7044  140.2310    4.8920 C   0  0  0  0  0  0  0  0  0  0  0  0
   19.0275  138.9003    5.1356 C   0  0  0  0  0  0  0  0  0  0  0  0
   20.0601  136.0516    3.9351 C   0  0  0  0  0  0  0  0  0  0  0  0
   20.5387  134.7595    3.7666 C   0  0  0  0  0  0  0  0  0  0  0  0
   19.9672  133.9908    2.7614 C   0  0  0  0  0  0  0  0  0  0  0  0
   18.9534  134.4952    1.9529 C   0  0  0  0  0  0  0  0  0  0  0  0
   18.5000  135.7919    2.1502 C   0  0  0  0  0  0  0  0  0  0  0  0
   19.0520  136.5870    3.1480 C   0  0  0  0  0  0  0  0  0  0  0  0
   17.4459  136.3199    1.3006 C   0  0  0  0  0  0  0  0  0  0  0  0
   16.9456  137.6723    1.4653 C   0  0  0  0  0  0  0  0  0  0  0  0
   16.0353  137.9443    2.4811 C   0  0  0  0  0  0  0  0  0  0  0  0
   15.5607  139.2435    2.6320 C   0  0  0  0  0  0  0  0  0  0  0  0
   15.9841  140.2619    1.7848 C   0  0  0  0  0  0  0  0  0  0  0  0
   16.8951  139.9668    0.7757 C   0  0  0  0  0  0  0  0  0  0  0  0
   17.4484  141.2559   -0.3197 Cl  0  0  0  0  0  0  0  0  0  0  0  0
   17.3824  138.6750    0.6060 C   0  0  0  0  0  0  0  0  0  0  0  0
   16.8921  135.6048    0.3382 C   0  0  0  0  0  0  0  0  0  0  0  0
   17.3502  134.2462    0.1199 C   0  0  0  0  0  0  0  0  0  0  0  0
   16.8380  133.5849   -0.7689 O   0  0  0  0  0  0  0  0  0  0  0  0
   18.3678  133.7319    0.9347 N   0  0  0  0  0  0  0  0  0  0  0  0
   18.7987  132.3490    0.6688 C   0  0  0  0  0  0  0  0  0  0  0  0
   21.6569  137.1112    2.5478 H   0  0  0  0  0  0  0  0  0  0  0  0
   23.1020  137.8078    2.2432 H   0  0  0  0  0  0  0  0  0  0  0  0
   22.9188  136.1952    2.0628 H   0  0  0  0  0  0  0  0  0  0  0  0
   25.1395  136.5649    3.8807 H   0  0  0  0  0  0  0  0  0  0  0  0
   22.6489  136.4937    7.1090 H   0  0  0  0  0  0  0  0  0  0  0  0
   20.2642  137.2763    7.0255 H   0  0  0  0  0  0  0  0  0  0  0  0
   19.1354  136.3644    6.2765 H   0  0  0  0  0  0  0  0  0  0  0  0
   22.1213  138.9225    3.9320 H   0  0  0  0  0  0  0  0  0  0  0  0
   21.5625  141.2155    3.5120 H   0  0  0  0  0  0  0  0  0  0  0  0
   17.8023  140.5816    5.1436 H   0  0  0  0  0  0  0  0  0  0  0  0
   18.3616  138.2888    5.5631 H   0  0  0  0  0  0  0  0  0  0  0  0
   21.2674  134.3961    4.3471 H   0  0  0  0  0  0  0  0  0  0  0  0
   20.2908  133.0559    2.6157 H   0  0  0  0  0  0  0  0  0  0  0  0
   18.7298  137.5223    3.2946 H   0  0  0  0  0  0  0  0  0  0  0  0
   15.7265  137.2169    3.0939 H   0  0  0  0  0  0  0  0  0  0  0  0
   14.9060  139.4478    3.3598 H   0  0  0  0  0  0  0  0  0  0  0  0
   15.6386  141.1933    1.8994 H   0  0  0  0  0  0  0  0  0  0  0  0
   18.0364  138.4705   -0.1222 H   0  0  0  0  0  0  0  0  0  0  0  0
   16.1681  135.9941   -0.2313 H   0  0  0  0  0  0  0  0  0  0  0  0
   19.5239  132.0968    1.3095 H   0  0  0  0  0  0  0  0  0  0  0  0
   18.0219  131.7299    0.7839 H   0  0  0  0  0  0  0  0  0  0  0  0
   19.1429  132.2814   -0.2677 H   0  0  0  0  0  0  0  0  0  0  0  0
  1  2  1  0  0  0  0
  2  3  1  0  0  0  0
  3  4  2  0  0  0  0
  4  5  1  0  0  0  0
  5  6  2  0  0  0  0
  6  7  1  0  0  0  0
  7  8  1  0  0  0  0
  7  9  1  0  0  0  0
  9 10  2  0  0  0  0
 10 11  1  0  0  0  0
 11 12  2  0  0  0  0
 12 13  1  0  0  0  0
 12 14  1  0  0  0  0
 14 15  2  0  0  0  0
  7 16  1  0  0  0  0
 16 17  2  0  0  0  0
 17 18  1  0  0  0  0
 18 19  2  0  0  0  0
 19 20  1  0  0  0  0
 20 21  2  0  0  0  0
 20 22  1  0  0  0  0
 22 23  1  0  0  0  0
 23 24  2  0  0  0  0
 24 25  1  0  0  0  0
 25 26  2  0  0  0  0
 26 27  1  0  0  0  0
 27 28  1  0  0  0  0
 27 29  2  0  0  0  0
 22 30  2  0  0  0  0
 30 31  1  0  0  0  0
 31 32  2  0  0  0  0
 31 33  1  0  0  0  0
 33 34  1  0  0  0  0
  6  2  1  0  0  0  0
 15  9  1  0  0  0  0
 21 16  1  0  0  0  0
 29 23  1  0  0  0  0
 33 19  1  0  0  0  0
  1 35  1  0  0  0  0
  1 36  1  0  0  0  0
  1 37  1  0  0  0  0
  3 38  1  0  0  0  0
  5 39  1  0  0  0  0
 34 56  1  0  0  0  0
  8 40  1  0  0  0  0
  8 41  1  0  0  0  0
 10 42  1  0  0  0  0
 11 43  1  0  0  0  0
 14 44  1  0  0  0  0
 15 45  1  0  0  0  0
 17 46  1  0  0  0  0
 18 47  1  0  0  0  0
 21 48  1  0  0  0  0
 24 49  1  0  0  0  0
 25 50  1  0  0  0  0
 26 51  1  0  0  0  0
 29 52  1  0  0  0  0
 30 53  1  0  0  0  0
 34 54  1  0  0  0  0
 34 55  1  0  0  0  0
M  END
> <BIOSOLVEIT.HYDE_ESTIMATED_AFFINITY_LOWER_BOUNDARY [nM]>
35976328.567669

> <BIOSOLVEIT.HYDE_ESTIMATED_AFFINITY_UPPER_BOUNDARY [nM]>
3574460952.086426

> <BIOSOLVEIT.HYDE_LIGAND_EFFICIENCY range: ++, +, 0, -, -->
--

> <BIOSOLVEIT.HYDE_LIGAND_LIPOPHILIC_EFFICIENCY range: ++, +, 0, -, -->
--

> <BIOSOLVEIT.INTER_CLASH range: red, yellow, green>
green

> <BIOSOLVEIT.INTRA_CLASH range: red, yellow, green>
green

> <BIOSOLVEIT.LOGP>
5.3856

> <BIOSOLVEIT.MOLECULAR WEIGHT>
489.404

> <BIOSOLVEIT.MOLECULE_CHECKSUM>
LTIuNTQyMjc7MC4wNzQ3NzI2

> <BIOSOLVEIT.TORSION_QUALITY range: red, yellow, green, not rotatable>
yellow

> <BIOSOLVEIT.TPSA>
64.15

$$$$
1SA4_JAN_2
foHydescor03192112113D 1   1.00000     0.00000     0
Hydescorer 1.1.0 fol007
 56 60  0  0  0  0            999 V2000
   20.9124  131.8138    0.3906 C   0  0  0  0  0  0  0  0  0  0  0  0
   20.6873  133.0913   -0.3019 N   0  0  0  0  0  0  0  0  0  0  0  0
   21.1277  133.3983   -1.5562 C   0  0  0  0  0  0  0  0  0  0  0  0
   20.7331  134.6219   -1.8317 N   0  0  0  0  0  0  0  0  0  0  0  0
   20.0382  135.1133   -0.7628 C   0  0  0  0  0  0  0  0  0  0  0  0
   20.0052  134.1539    0.2067 C   0  0  0  0  0  0  0  0  0  0  0  0
   19.3291  134.2559    1.5855 C   0  0  1  0  0  0  0  0  0  0  0  0
   18.7956  132.9177    1.9496 N   0  0  0  0  0  0  0  0  0  0  0  0
   20.3419  134.7035    2.6643 C   0  0  0  0  0  0  0  0  0  0  0  0
   20.3153  134.0972    3.9165 C   0  0  0  0  0  0  0  0  0  0  0  0
   21.2205  134.4877    4.8978 C   0  0  0  0  0  0  0  0  0  0  0  0
   22.1442  135.4861    4.6090 C   0  0  0  0  0  0  0  0  0  0  0  0
   23.3094  135.9975    5.8540 Cl  0  0  0  0  0  0  0  0  0  0  0  0
   22.1725  136.0928    3.3582 C   0  0  0  0  0  0  0  0  0  0  0  0
   21.2670  135.7016    2.3776 C   0  0  0  0  0  0  0  0  0  0  0  0
   18.1623  135.2705    1.5060 C   0  0  0  0  0  0  0  0  0  0  0  0
   17.9795  136.1882    2.5312 C   0  0  0  0  0  0  0  0  0  0  0  0
   16.9196  137.0774    2.4134 C   0  0  0  0  0  0  0  0  0  0  0  0
   16.0722  137.0508    1.3103 C   0  0  0  0  0  0  0  0  0  0  0  0
   16.2853  136.1190    0.3041 C   0  0  0  0  0  0  0  0  0  0  0  0
   17.3375  135.2148    0.3926 C   0  0  0  0  0  0  0  0  0  0  0  0
   15.3953  136.0875   -0.8442 C   0  0  0  0  0  0  0  0  0  0  0  0
   15.5750  135.1261   -1.9165 C   0  0  0  0  0  0  0  0  0  0  0  0
   14.6317  134.1200   -2.0962 C   0  0  0  0  0  0  0  0  0  0  0  0
   14.8117  133.2023   -3.1264 C   0  0  0  0  0  0  0  0  0  0  0  0
   15.9152  133.2814   -3.9692 C   0  0  0  0  0  0  0  0  0  0  0  0
   16.8458  134.2960   -3.7708 C   0  0  0  0  0  0  0  0  0  0  0  0
   18.2655  134.4138   -4.8379 Cl  0  0  0  0  0  0  0  0  0  0  0  0
   16.6865  135.2240   -2.7468 C   0  0  0  0  0  0  0  0  0  0  0  0
   14.3809  136.9235   -0.9725 C   0  0  0  0  0  0  0  0  0  0  0  0
   14.1451  137.9069    0.0670 C   0  0  0  0  0  0  0  0  0  0  0  0
   13.2081  138.6801   -0.0517 O   0  0  0  0  0  0  0  0  0  0  0  0
   14.9988  137.9411    1.1779 N   0  0  0  0  0  0  0  0  0  0  0  0
   14.7131  138.9559    2.2061 C   0  0  0  0  0  0  0  0  0  0  0  0
   20.4877  131.8457    1.2954 H   0  0  0  0  0  0  0  0  0  0  0  0
   20.5075  131.0703   -0.1416 H   0  0  0  0  0  0  0  0  0  0  0  0
   21.8950  131.6567    0.4890 H   0  0  0  0  0  0  0  0  0  0  0  0
   21.6561  132.7997   -2.1584 H   0  0  0  0  0  0  0  0  0  0  0  0
   19.6242  136.0215   -0.7015 H   0  0  0  0  0  0  0  0  0  0  0  0
   18.1790  133.0062    2.7319 H   0  0  0  0  0  0  0  0  0  0  0  0
   18.2954  132.5355    1.1726 H   0  0  0  0  0  0  0  0  0  0  0  0
   19.6453  133.3807    4.1110 H   0  0  0  0  0  0  0  0  0  0  0  0
   21.2071  134.0558    5.7997 H   0  0  0  0  0  0  0  0  0  0  0  0
   22.8427  136.8091    3.1639 H   0  0  0  0  0  0  0  0  0  0  0  0
   21.2809  136.1335    1.4758 H   0  0  0  0  0  0  0  0  0  0  0  0
   18.5880  136.2082    3.3245 H   0  0  0  0  0  0  0  0  0  0  0  0
   16.7623  137.7505    3.1359 H   0  0  0  0  0  0  0  0  0  0  0  0
   17.4957  134.5408   -0.3289 H   0  0  0  0  0  0  0  0  0  0  0  0
   13.8358  134.0571   -1.4940 H   0  0  0  0  0  0  0  0  0  0  0  0
   14.1383  132.4757   -3.2627 H   0  0  0  0  0  0  0  0  0  0  0  0
   16.0379  132.6182   -4.7076 H   0  0  0  0  0  0  0  0  0  0  0  0
   17.3605  135.9500   -2.6099 H   0  0  0  0  0  0  0  0  0  0  0  0
   13.7846  136.8790   -1.7740 H   0  0  0  0  0  0  0  0  0  0  0  0
   15.3850  138.8820    2.9430 H   0  0  0  0  0  0  0  0  0  0  0  0
   14.7646  139.8674    1.7981 H   0  0  0  0  0  0  0  0  0  0  0  0
   13.7957  138.8073    2.5753 H   0  0  0  0  0  0  0  0  0  0  0  0
  1  2  1  0  0  0  0
  2  3  1  0  0  0  0
  3  4  2  0  0  0  0
  4  5  1  0  0  0  0
  5  6  2  0  0  0  0
  6  7  1  0  0  0  0
  7  8  1  0  0  0  0
  7  9  1  0  0  0  0
  9 10  2  0  0  0  0
 10 11  1  0  0  0  0
 11 12  2  0  0  0  0
 12 13  1  0  0  0  0
 12 14  1  0  0  0  0
 14 15  2  0  0  0  0
  7 16  1  0  0  0  0
 16 17  2  0  0  0  0
 17 18  1  0  0  0  0
 18 19  2  0  0  0  0
 19 20  1  0  0  0  0
 20 21  2  0  0  0  0
 20 22  1  0  0  0  0
 22 23  1  0  0  0  0
 23 24  2  0  0  0  0
 24 25  1  0  0  0  0
 25 26  2  0  0  0  0
 26 27  1  0  0  0  0
 27 28  1  0  0  0  0
 27 29  2  0  0  0  0
 22 30  2  0  0  0  0
 30 31  1  0  0  0  0
 31 32  2  0  0  0  0
 31 33  1  0  0  0  0
 33 34  1  0  0  0  0
  6  2  1  0  0  0  0
 15  9  1  0  0  0  0
 21 16  1  0  0  0  0
 29 23  1  0  0  0  0
 33 19  1  0  0  0  0
  1 35  1  0  0  0  0
  1 36  1  0  0  0  0
  1 37  1  0  0  0  0
  3 38  1  0  0  0  0
  5 39  1  0  0  0  0
 34 56  1  0  0  0  0
  8 40  1  0  0  0  0
  8 41  1  0  0  0  0
 10 42  1  0  0  0  0
 11 43  1  0  0  0  0
 14 44  1  0  0  0  0
 15 45  1  0  0  0  0
 17 46  1  0  0  0  0
 18 47  1  0  0  0  0
 21 48  1  0  0  0  0
 24 49  1  0  0  0  0
 25 50  1  0  0  0  0
 26 51  1  0  0  0  0
 29 52  1  0  0  0  0
 30 53  1  0  0  0  0
 34 54  1  0  0  0  0
 34 55  1  0  0  0  0
M  END
> <BIOSOLVEIT.HYDE_ESTIMATED_AFFINITY_LOWER_BOUNDARY [nM]>
11466419.300018

> <BIOSOLVEIT.HYDE_ESTIMATED_AFFINITY_UPPER_BOUNDARY [nM]>
1139256552.293045

> <BIOSOLVEIT.HYDE_LIGAND_EFFICIENCY range: ++, +, 0, -, -->
--

> <BIOSOLVEIT.HYDE_LIGAND_LIPOPHILIC_EFFICIENCY range: ++, +, 0, -, -->
--

> <BIOSOLVEIT.INTER_CLASH range: red, yellow, green>
green

> <BIOSOLVEIT.INTRA_CLASH range: red, yellow, green>
yellow

> <BIOSOLVEIT.LOGP>
5.3856

> <BIOSOLVEIT.MOLECULAR WEIGHT>
489.404

> <BIOSOLVEIT.MOLECULE_CHECKSUM>
LTUuMzc2ODswLjE1ODE0MQ==

> <BIOSOLVEIT.TORSION_QUALITY range: red, yellow, green, not rotatable>
yellow

> <BIOSOLVEIT.TPSA>
64.15

$$$$
1SA4_JAN_3
foHydescor03192112113D 1   1.00000     0.00000     0
Hydescorer 1.1.0 fol007
 56 60  0  0  0  0            999 V2000
   17.9378  136.1939    0.7327 C   0  0  0  0  0  0  0  0  0  0  0  0
   16.5339  136.3005    0.3091 N   0  0  0  0  0  0  0  0  0  0  0  0
   15.5926  137.1011    0.8875 C   0  0  0  0  0  0  0  0  0  0  0  0
   14.4634  136.9275    0.2366 N   0  0  0  0  0  0  0  0  0  0  0  0
   14.6648  136.0178   -0.7627 C   0  0  0  0  0  0  0  0  0  0  0  0
   15.9683  135.6170   -0.7234 C   0  0  0  0  0  0  0  0  0  0  0  0
   16.6530  134.6057   -1.6601 C   0  0  1  0  0  0  0  0  0  0  0  0
   17.8483  134.0567   -0.9686 N   0  0  0  0  0  0  0  0  0  0  0  0
   15.7123  133.4621   -2.0036 C   0  0  0  0  0  0  0  0  0  0  0  0
   16.1565  132.1505   -1.8661 C   0  0  0  0  0  0  0  0  0  0  0  0
   15.3078  131.0927   -2.1754 C   0  0  0  0  0  0  0  0  0  0  0  0
   14.0192  131.3657   -2.6212 C   0  0  0  0  0  0  0  0  0  0  0  0
   12.9208  130.0233   -3.0214 Cl  0  0  0  0  0  0  0  0  0  0  0  0
   13.5737  132.6758   -2.7589 C   0  0  0  0  0  0  0  0  0  0  0  0
   14.4232  133.7327   -2.4493 C   0  0  0  0  0  0  0  0  0  0  0  0
   17.0955  135.3304   -2.9547 C   0  0  0  0  0  0  0  0  0  0  0  0
   16.1377  135.7526   -3.8664 C   0  0  0  0  0  0  0  0  0  0  0  0
   16.5844  136.3982   -5.0116 C   0  0  0  0  0  0  0  0  0  0  0  0
   17.9400  136.6145   -5.2381 C   0  0  0  0  0  0  0  0  0  0  0  0
   18.8695  136.1784   -4.3042 C   0  0  0  0  0  0  0  0  0  0  0  0
   18.4542  135.5284   -3.1476 C   0  0  0  0  0  0  0  0  0  0  0  0
   20.2855  136.3986   -4.5452 C   0  0  0  0  0  0  0  0  0  0  0  0
   21.2934  135.9533   -3.6005 C   0  0  0  0  0  0  0  0  0  0  0  0
   22.1470  134.9133   -3.9529 C   0  0  0  0  0  0  0  0  0  0  0  0
   23.1102  134.4924   -3.0415 C   0  0  0  0  0  0  0  0  0  0  0  0
   23.2259  135.0963   -1.7940 C   0  0  0  0  0  0  0  0  0  0  0  0
   22.3613  136.1347   -1.4631 C   0  0  0  0  0  0  0  0  0  0  0  0
   22.4922  136.9198    0.1290 Cl  0  0  0  0  0  0  0  0  0  0  0  0
   21.3903  136.5713   -2.3584 C   0  0  0  0  0  0  0  0  0  0  0  0
   20.7291  137.0085   -5.6293 C   0  0  0  0  0  0  0  0  0  0  0  0
   19.7724  137.4749   -6.6144 C   0  0  0  0  0  0  0  0  0  0  0  0
   20.1823  138.0393   -7.6161 O   0  0  0  0  0  0  0  0  0  0  0  0
   18.4054  137.2639   -6.3887 N   0  0  0  0  0  0  0  0  0  0  0  0
   17.4768  137.7533   -7.4216 C   0  0  0  0  0  0  0  0  0  0  0  0
   18.4144  135.5396    0.1455 H   0  0  0  0  0  0  0  0  0  0  0  0
   18.3771  137.0892    0.6594 H   0  0  0  0  0  0  0  0  0  0  0  0
   17.9768  135.8802    1.6814 H   0  0  0  0  0  0  0  0  0  0  0  0
   15.7359  137.7108    1.6671 H   0  0  0  0  0  0  0  0  0  0  0  0
   13.9742  135.6999   -1.4124 H   0  0  0  0  0  0  0  0  0  0  0  0
   17.5601  133.5525   -0.1545 H   0  0  0  0  0  0  0  0  0  0  0  0
   18.3373  133.4410   -1.5864 H   0  0  0  0  0  0  0  0  0  0  0  0
   17.0858  131.9684   -1.5449 H   0  0  0  0  0  0  0  0  0  0  0  0
   15.6203  130.1477   -2.0783 H   0  0  0  0  0  0  0  0  0  0  0  0
   12.6442  132.8576   -3.0799 H   0  0  0  0  0  0  0  0  0  0  0  0
   14.1101  134.6775   -2.5463 H   0  0  0  0  0  0  0  0  0  0  0  0
   15.1632  135.5976   -3.7046 H   0  0  0  0  0  0  0  0  0  0  0  0
   15.9183  136.7141   -5.6873 H   0  0  0  0  0  0  0  0  0  0  0  0
   19.1191  135.2114   -2.4713 H   0  0  0  0  0  0  0  0  0  0  0  0
   22.0695  134.4745   -4.8482 H   0  0  0  0  0  0  0  0  0  0  0  0
   23.7281  133.7453   -3.2868 H   0  0  0  0  0  0  0  0  0  0  0  0
   23.9207  134.7884   -1.1440 H   0  0  0  0  0  0  0  0  0  0  0  0
   20.7717  137.3176   -2.1127 H   0  0  0  0  0  0  0  0  0  0  0  0
   21.7096  137.1466   -5.7688 H   0  0  0  0  0  0  0  0  0  0  0  0
   16.5370  137.5461   -7.1500 H   0  0  0  0  0  0  0  0  0  0  0  0
   17.5838  138.7422   -7.5244 H   0  0  0  0  0  0  0  0  0  0  0  0
   17.6791  137.3038   -8.2917 H   0  0  0  0  0  0  0  0  0  0  0  0
  1  2  1  0  0  0  0
  2  3  1  0  0  0  0
  3  4  2  0  0  0  0
  4  5  1  0  0  0  0
  5  6  2  0  0  0  0
  6  7  1  0  0  0  0
  7  8  1  0  0  0  0
  7  9  1  0  0  0  0
  9 10  2  0  0  0  0
 10 11  1  0  0  0  0
 11 12  2  0  0  0  0
 12 13  1  0  0  0  0
 12 14  1  0  0  0  0
 14 15  2  0  0  0  0
  7 16  1  0  0  0  0
 16 17  2  0  0  0  0
 17 18  1  0  0  0  0
 18 19  2  0  0  0  0
 19 20  1  0  0  0  0
 20 21  2  0  0  0  0
 20 22  1  0  0  0  0
 22 23  1  0  0  0  0
 23 24  2  0  0  0  0
 24 25  1  0  0  0  0
 25 26  2  0  0  0  0
 26 27  1  0  0  0  0
 27 28  1  0  0  0  0
 27 29  2  0  0  0  0
 22 30  2  0  0  0  0
 30 31  1  0  0  0  0
 31 32  2  0  0  0  0
 31 33  1  0  0  0  0
 33 34  1  0  0  0  0
  6  2  1  0  0  0  0
 15  9  1  0  0  0  0
 21 16  1  0  0  0  0
 29 23  1  0  0  0  0
 33 19  1  0  0  0  0
  1 35  1  0  0  0  0
  1 36  1  0  0  0  0
  1 37  1  0  0  0  0
  3 38  1  0  0  0  0
  5 39  1  0  0  0  0
 34 56  1  0  0  0  0
  8 40  1  0  0  0  0
  8 41  1  0  0  0  0
 10 42  1  0  0  0  0
 11 43  1  0  0  0  0
 14 44  1  0  0  0  0
 15 45  1  0  0  0  0
 17 46  1  0  0  0  0
 18 47  1  0  0  0  0
 21 48  1  0  0  0  0
 24 49  1  0  0  0  0
 25 50  1  0  0  0  0
 26 51  1  0  0  0  0
 29 52  1  0  0  0  0
 30 53  1  0  0  0  0
 34 54  1  0  0  0  0
 34 55  1  0  0  0  0
M  END
> <BIOSOLVEIT.HYDE_ESTIMATED_AFFINITY_LOWER_BOUNDARY [nM]>
132695.609936

> <BIOSOLVEIT.HYDE_ESTIMATED_AFFINITY_UPPER_BOUNDARY [nM]>
13184093.405651

> <BIOSOLVEIT.HYDE_LIGAND_EFFICIENCY range: ++, +, 0, -, -->
--

> <BIOSOLVEIT.HYDE_LIGAND_LIPOPHILIC_EFFICIENCY range: ++, +, 0, -, -->
--

> <BIOSOLVEIT.INTER_CLASH range: red, yellow, green>
green

> <BIOSOLVEIT.INTRA_CLASH range: red, yellow, green>
red

> <BIOSOLVEIT.LOGP>
5.3856

> <BIOSOLVEIT.MOLECULAR WEIGHT>
489.404

> <BIOSOLVEIT.MOLECULE_CHECKSUM>
LTE2LjQzMDg7MC40ODMyNTg=

> <BIOSOLVEIT.TORSION_QUALITY range: red, yellow, green, not rotatable>
green

> <BIOSOLVEIT.TPSA>
64.15

$$$$
1MZC_BNE_1
foHydescor03192112113D 1   1.00000     0.00000     0
Hydescorer 1.1.0 fol007
 69 72  0  0  0  0            999 V2000
   19.2349  132.6427   -1.3408 C   0  0  0  0  0  0  0  0  0  0  0  0
   18.9490  133.3948   -2.6489 C   0  0  0  0  0  0  0  0  0  0  0  0
   17.6807  134.2330   -2.6417 C   0  0  1  0  0  0  0  0  0  0  0  0
   17.5259  134.8336   -4.0288 C   0  0  0  0  0  0  0  0  0  0  0  0
   17.3933  134.0012   -5.1354 C   0  0  0  0  0  0  0  0  0  0  0  0
   17.2529  134.5730   -6.3959 C   0  0  0  0  0  0  0  0  0  0  0  0
   17.2442  135.9543   -6.5594 C   0  0  0  0  0  0  0  0  0  0  0  0
   17.3784  136.7683   -5.4393 C   0  0  0  0  0  0  0  0  0  0  0  0
   17.3711  138.1620   -5.5953 O   0  0  0  0  0  0  0  0  0  0  0  0
   18.2194  139.0123   -4.9792 C   0  0  0  0  0  0  0  0  0  0  0  0
   17.8834  139.4935   -3.7181 C   0  0  0  0  0  0  0  0  0  0  0  0
   18.7526  140.3703   -3.0773 C   0  0  0  0  0  0  0  0  0  0  0  0
   18.3895  140.9113   -1.6765 C   0  0  2  0  0  0  0  0  0  0  0  0
   16.9154  140.6362   -1.2981 C   0  0  0  0  0  0  0  0  0  0  0  0
   18.6191  142.3710   -1.6872 N   0  3  0  0  0  0  0  0  0  0  0  0
   19.2503  140.2131   -0.6351 C   0  0  0  0  0  0  0  0  0  0  0  0
   20.1203  139.1902   -0.8741 C   0  0  0  0  0  0  0  0  0  0  0  0
   20.6856  138.8616    0.3224 N   0  0  0  0  0  0  0  0  0  0  0  0
   20.1855  139.6460    1.2532 C   0  0  0  0  0  0  0  0  0  0  0  0
   19.2929  140.5051    0.6918 N   0  0  0  0  0  0  0  0  0  0  0  0
   18.5158  141.5434    1.3848 C   0  0  0  0  0  0  0  0  0  0  0  0
   19.9426  140.7669   -3.6789 C   0  0  0  0  0  0  0  0  0  0  0  0
   20.2682  140.2793   -4.9402 C   0  0  0  0  0  0  0  0  0  0  0  0
   19.4067  139.4017   -5.5904 C   0  0  0  0  0  0  0  0  0  0  0  0
   19.7625  138.8687   -6.9688 C   0  0  0  0  0  0  0  0  0  0  0  0
   20.0328  138.4625   -8.0182 N   0  0  0  0  0  0  0  0  0  0  0  0
   17.5197  136.2176   -4.1698 C   0  0  0  0  0  0  0  0  0  0  0  0
   16.5032  133.2762   -2.4101 C   0  0  0  0  0  0  0  0  0  0  0  0
   15.0668  133.8060   -2.5264 C   0  0  0  0  0  0  0  0  0  0  0  0
   14.7564  135.2209   -2.0227 C   0  0  0  0  0  0  0  0  0  0  0  0
   15.4653  135.7172   -0.7602 C   0  0  0  0  0  0  0  0  0  0  0  0
   16.9175  136.0268   -0.8400 N   0  0  0  0  0  0  0  0  0  0  0  0
   17.3715  137.1190    0.0352 C   0  0  0  0  0  0  0  0  0  0  0  0
   17.8918  135.3891   -1.6501 C   0  0  0  0  0  0  0  0  0  0  0  0
   19.0341  135.8118   -1.5457 O   0  0  0  0  0  0  0  0  0  0  0  0
   20.0827  132.1207   -1.4349 H   0  0  0  0  0  0  0  0  0  0  0  0
   19.3291  133.2993   -0.5925 H   0  0  0  0  0  0  0  0  0  0  0  0
   18.4793  132.0182   -1.1433 H   0  0  0  0  0  0  0  0  0  0  0  0
   18.8719  132.7211   -3.3839 H   0  0  0  0  0  0  0  0  0  0  0  0
   19.7217  134.0023   -2.8331 H   0  0  0  0  0  0  0  0  0  0  0  0
   17.3988  133.0072   -5.0265 H   0  0  0  0  0  0  0  0  0  0  0  0
   17.1567  133.9819   -7.1968 H   0  0  0  0  0  0  0  0  0  0  0  0
   17.1429  136.3565   -7.4693 H   0  0  0  0  0  0  0  0  0  0  0  0
   17.0299  139.2134   -3.2789 H   0  0  0  0  0  0  0  0  0  0  0  0
   16.7310  141.0040   -0.3866 H   0  0  0  0  0  0  0  0  0  0  0  0
   16.3126  141.0765   -1.9634 H   0  0  0  0  0  0  0  0  0  0  0  0
   16.7493  139.6501   -1.2993 H   0  0  0  0  0  0  0  0  0  0  0  0
   18.0564  142.8020   -0.9817 H   0  0  0  0  0  0  0  0  0  0  0  0
   19.5842  142.5580   -1.5043 H   0  0  0  0  0  0  0  0  0  0  0  0
   18.3718  142.7408   -2.5828 H   0  0  0  0  0  0  0  0  0  0  0  0
   20.3079  138.7627   -1.7584 H   0  0  0  0  0  0  0  0  0  0  0  0
   20.4249  139.6152    2.2236 H   0  0  0  0  0  0  0  0  0  0  0  0
   17.9395  142.0250    0.7245 H   0  0  0  0  0  0  0  0  0  0  0  0
   17.9394  141.1183    2.0827 H   0  0  0  0  0  0  0  0  0  0  0  0
   19.1400  142.1931    1.8186 H   0  0  0  0  0  0  0  0  0  0  0  0
   20.5593  141.3979   -3.2081 H   0  0  0  0  0  0  0  0  0  0  0  0
   21.1217  140.5596   -5.3795 H   0  0  0  0  0  0  0  0  0  0  0  0
   17.6156  136.8088   -3.3690 H   0  0  0  0  0  0  0  0  0  0  0  0
   16.6040  132.9087   -1.4856 H   0  0  0  0  0  0  0  0  0  0  0  0
   16.5949  132.5351   -3.0753 H   0  0  0  0  0  0  0  0  0  0  0  0
   14.4798  133.1774   -2.0163 H   0  0  0  0  0  0  0  0  0  0  0  0
   14.8214  133.7790   -3.4955 H   0  0  0  0  0  0  0  0  0  0  0  0
   13.7731  135.2621   -1.8449 H   0  0  0  0  0  0  0  0  0  0  0  0
   14.9885  135.8548   -2.7605 H   0  0  0  0  0  0  0  0  0  0  0  0
   15.3514  135.0119   -0.0605 H   0  0  0  0  0  0  0  0  0  0  0  0
   15.0004  136.5534   -0.4694 H   0  0  0  0  0  0  0  0  0  0  0  0
   18.3548  137.2556   -0.0849 H   0  0  0  0  0  0  0  0  0  0  0  0
   16.8865  137.9604   -0.2030 H   0  0  0  0  0  0  0  0  0  0  0  0
   17.1817  136.8832    0.9883 H   0  0  0  0  0  0  0  0  0  0  0  0
  1  2  1  0  0  0  0
  2  3  1  0  0  0  0
  3  4  1  0  0  0  0
  4  5  2  0  0  0  0
  5  6  1  0  0  0  0
  6  7  2  0  0  0  0
  7  8  1  0  0  0  0
  8  9  1  0  0  0  0
  9 10  1  0  0  0  0
 10 11  2  0  0  0  0
 11 12  1  0  0  0  0
 12 13  1  0  0  0  0
 13 14  1  0  0  0  0
 13 15  1  0  0  0  0
 13 16  1  0  0  0  0
 16 17  2  0  0  0  0
 17 18  1  0  0  0  0
 18 19  2  0  0  0  0
 19 20  1  0  0  0  0
 20 21  1  0  0  0  0
 12 22  2  0  0  0  0
 22 23  1  0  0  0  0
 23 24  2  0  0  0  0
 24 25  1  0  0  0  0
 25 26  3  0  0  0  0
  8 27  2  0  0  0  0
  3 28  1  0  0  0  0
 28 29  1  0  0  0  0
 29 30  1  0  0  0  0
 30 31  1  0  0  0  0
 31 32  1  0  0  0  0
 32 33  1  0  0  0  0
 32 34  1  0  0  0  0
 34 35  2  0  0  0  0
 34  3  1  0  0  0  0
 27  4  1  0  0  0  0
 24 10  1  0  0  0  0
 20 16  1  0  0  0  0
  1 36  1  0  0  0  0
  1 37  1  0  0  0  0
  1 38  1  0  0  0  0
  2 39  1  0  0  0  0
  2 40  1  0  0  0  0
  5 41  1  0  0  0  0
  6 42  1  0  0  0  0
  7 43  1  0  0  0  0
 11 44  1  0  0  0  0
 14 45  1  0  0  0  0
 14 46  1  0  0  0  0
 14 47  1  0  0  0  0
 15 48  1  0  0  0  0
 15 49  1  0  0  0  0
 15 50  1  0  0  0  0
 17 51  1  0  0  0  0
 19 52  1  0  0  0  0
 21 53  1  0  0  0  0
 21 54  1  0  0  0  0
 21 55  1  0  0  0  0
 22 56  1  0  0  0  0
 23 57  1  0  0  0  0
 27 58  1  0  0  0  0
 28 59  1  0  0  0  0
 28 60  1  0  0  0  0
 29 61  1  0  0  0  0
 29 62  1  0  0  0  0
 30 63  1  0  0  0  0
 30 64  1  0  0  0  0
 31 65  1  0  0  0  0
 31 66  1  0  0  0  0
 33 67  1  0  0  0  0
 33 68  1  0  0  0  0
 33 69  1  0  0  0  0
M  CHG  1  15   1
M  END
> <BIOSOLVEIT.HYDE_ESTIMATED_AFFINITY_LOWER_BOUNDARY [nM]>
116028203.683178

> <BIOSOLVEIT.HYDE_ESTIMATED_AFFINITY_UPPER_BOUNDARY [nM]>
11528088048.955826

> <BIOSOLVEIT.HYDE_LIGAND_EFFICIENCY range: ++, +, 0, -, -->
--

> <BIOSOLVEIT.HYDE_LIGAND_LIPOPHILIC_EFFICIENCY range: ++, +, 0, -, -->
--

> <BIOSOLVEIT.INTER_CLASH range: red, yellow, green>
green

> <BIOSOLVEIT.INTRA_CLASH range: red, yellow, green>
green

> <BIOSOLVEIT.LOGP>
3.87958

> <BIOSOLVEIT.MOLECULAR WEIGHT>
472.61

> <BIOSOLVEIT.MOLECULE_CHECKSUM>
MC4zNjA1Mjsw

> <BIOSOLVEIT.TORSION_QUALITY range: red, yellow, green, not rotatable>
green

> <BIOSOLVEIT.TPSA>
98.79

$$$$
1MZC_BNE_2
foHydescor03192112113D 1   1.00000     0.00000     0
Hydescorer 1.1.0 fol007
 69 72  0  0  0  0            999 V2000
   14.3136  136.1601   -6.3701 C   0  0  0  0  0  0  0  0  0  0  0  0
   14.1048  136.3359   -4.8587 C   0  0  0  0  0  0  0  0  0  0  0  0
   15.2927  135.9464   -4.0001 C   0  0  1  0  0  0  0  0  0  0  0  0
   15.1071  134.5018   -3.5671 C   0  0  0  0  0  0  0  0  0  0  0  0
   13.8842  133.8689   -3.7649 C   0  0  0  0  0  0  0  0  0  0  0  0
   13.7368  132.5460   -3.3606 C   0  0  0  0  0  0  0  0  0  0  0  0
   14.7887  131.8567   -2.7664 C   0  0  0  0  0  0  0  0  0  0  0  0
   16.0030  132.5087   -2.5778 C   0  0  0  0  0  0  0  0  0  0  0  0
   17.0292  131.8466   -2.0012 O   0  0  0  0  0  0  0  0  0  0  0  0
   18.3572  132.3015   -1.9612 C   0  0  0  0  0  0  0  0  0  0  0  0
   18.9153  132.6245   -0.7288 C   0  0  0  0  0  0  0  0  0  0  0  0
   20.2302  133.0760   -0.6815 C   0  0  0  0  0  0  0  0  0  0  0  0
   20.8502  133.4323    0.6601 C   0  0  2  0  0  0  0  0  0  0  0  0
   21.6429  134.7595    0.6135 C   0  0  0  0  0  0  0  0  0  0  0  0
   21.7685  132.3366    1.0338 N   0  3  0  0  0  0  0  0  0  0  0  0
   19.7302  133.6171    1.6992 C   0  0  0  0  0  0  0  0  0  0  0  0
   19.4690  132.7851    2.7481 C   0  0  0  0  0  0  0  0  0  0  0  0
   18.4042  133.3118    3.4171 N   0  0  0  0  0  0  0  0  0  0  0  0
   18.0284  134.4156    2.8073 C   0  0  0  0  0  0  0  0  0  0  0  0
   18.8364  134.6405    1.7365 N   0  0  0  0  0  0  0  0  0  0  0  0
   18.7552  135.7665    0.7942 C   0  0  0  0  0  0  0  0  0  0  0  0
   20.9850  133.2065   -1.8427 C   0  0  0  0  0  0  0  0  0  0  0  0
   20.4165  132.8804   -3.0696 C   0  0  0  0  0  0  0  0  0  0  0  0
   19.1024  132.4277   -3.1289 C   0  0  0  0  0  0  0  0  0  0  0  0
   18.4811  132.0712   -4.4695 C   0  0  0  0  0  0  0  0  0  0  0  0
   18.0075  131.7997   -5.4900 N   0  0  0  0  0  0  0  0  0  0  0  0
   16.1722  133.8309   -2.9747 C   0  0  0  0  0  0  0  0  0  0  0  0
   16.4763  135.9618   -4.9701 C   0  0  0  0  0  0  0  0  0  0  0  0
   17.8678  135.7070   -4.3855 C   0  0  0  0  0  0  0  0  0  0  0  0
   18.4676  136.8816   -3.6191 C   0  0  0  0  0  0  0  0  0  0  0  0
   17.8911  137.1279   -2.2148 C   0  0  0  0  0  0  0  0  0  0  0  0
   16.4312  137.3386   -2.0072 N   0  0  0  0  0  0  0  0  0  0  0  0
   16.1056  138.1904   -0.8537 C   0  0  0  0  0  0  0  0  0  0  0  0
   15.3205  136.8475   -2.7544 C   0  0  0  0  0  0  0  0  0  0  0  0
   14.2245  137.1940   -2.3485 O   0  0  0  0  0  0  0  0  0  0  0  0
   13.4850  136.4391   -6.8557 H   0  0  0  0  0  0  0  0  0  0  0  0
   15.0815  136.7267   -6.6686 H   0  0  0  0  0  0  0  0  0  0  0  0
   14.5099  135.2002   -6.5701 H   0  0  0  0  0  0  0  0  0  0  0  0
   13.3256  135.7718   -4.5851 H   0  0  0  0  0  0  0  0  0  0  0  0
   13.8974  137.2983   -4.6837 H   0  0  0  0  0  0  0  0  0  0  0  0
   13.1227  134.3574   -4.1912 H   0  0  0  0  0  0  0  0  0  0  0  0
   12.8611  132.0835   -3.4994 H   0  0  0  0  0  0  0  0  0  0  0  0
   14.6736  130.9059   -2.4788 H   0  0  0  0  0  0  0  0  0  0  0  0
   18.3794  132.5335    0.1106 H   0  0  0  0  0  0  0  0  0  0  0  0
   22.0294  134.9487    1.5162 H   0  0  0  0  0  0  0  0  0  0  0  0
   22.3816  134.6832   -0.0561 H   0  0  0  0  0  0  0  0  0  0  0  0
   21.0301  135.5046    0.3504 H   0  0  0  0  0  0  0  0  0  0  0  0
   22.5169  132.2887    0.3723 H   0  0  0  0  0  0  0  0  0  0  0  0
   22.1402  132.5097    1.9458 H   0  0  0  0  0  0  0  0  0  0  0  0
   21.2697  131.4699    1.0361 H   0  0  0  0  0  0  0  0  0  0  0  0
   19.9641  131.9483    2.9818 H   0  0  0  0  0  0  0  0  0  0  0  0
   17.2663  134.9992    3.0879 H   0  0  0  0  0  0  0  0  0  0  0  0
   19.4746  135.6772    0.1053 H   0  0  0  0  0  0  0  0  0  0  0  0
   17.8615  135.7619    0.3454 H   0  0  0  0  0  0  0  0  0  0  0  0
   18.8743  136.6261    1.2910 H   0  0  0  0  0  0  0  0  0  0  0  0
   21.9292  133.5323   -1.7958 H   0  0  0  0  0  0  0  0  0  0  0  0
   20.9524  132.9715   -3.9090 H   0  0  0  0  0  0  0  0  0  0  0  0
   17.0480  134.2933   -2.8360 H   0  0  0  0  0  0  0  0  0  0  0  0
   16.4945  136.8610   -5.4073 H   0  0  0  0  0  0  0  0  0  0  0  0
   16.3075  135.2587   -5.6608 H   0  0  0  0  0  0  0  0  0  0  0  0
   18.4847  135.4805   -5.1392 H   0  0  0  0  0  0  0  0  0  0  0  0
   17.8046  134.9285   -3.7610 H   0  0  0  0  0  0  0  0  0  0  0  0
   18.3201  137.7090   -4.1609 H   0  0  0  0  0  0  0  0  0  0  0  0
   19.4492  136.7164   -3.5233 H   0  0  0  0  0  0  0  0  0  0  0  0
   18.3487  137.9429   -1.8593 H   0  0  0  0  0  0  0  0  0  0  0  0
   18.1448  136.3349   -1.6609 H   0  0  0  0  0  0  0  0  0  0  0  0
   15.1129  138.2853   -0.7791 H   0  0  0  0  0  0  0  0  0  0  0  0
   16.4642  137.7725   -0.0189 H   0  0  0  0  0  0  0  0  0  0  0  0
   16.5183  139.0927   -0.9786 H   0  0  0  0  0  0  0  0  0  0  0  0
  1  2  1  0  0  0  0
  2  3  1  0  0  0  0
  3  4  1  0  0  0  0
  4  5  2  0  0  0  0
  5  6  1  0  0  0  0
  6  7  2  0  0  0  0
  7  8  1  0  0  0  0
  8  9  1  0  0  0  0
  9 10  1  0  0  0  0
 10 11  2  0  0  0  0
 11 12  1  0  0  0  0
 12 13  1  0  0  0  0
 13 14  1  0  0  0  0
 13 15  1  0  0  0  0
 13 16  1  0  0  0  0
 16 17  2  0  0  0  0
 17 18  1  0  0  0  0
 18 19  2  0  0  0  0
 19 20  1  0  0  0  0
 20 21  1  0  0  0  0
 12 22  2  0  0  0  0
 22 23  1  0  0  0  0
 23 24  2  0  0  0  0
 24 25  1  0  0  0  0
 25 26  3  0  0  0  0
  8 27  2  0  0  0  0
  3 28  1  0  0  0  0
 28 29  1  0  0  0  0
 29 30  1  0  0  0  0
 30 31  1  0  0  0  0
 31 32  1  0  0  0  0
 32 33  1  0  0  0  0
 32 34  1  0  0  0  0
 34 35  2  0  0  0  0
 34  3  1  0  0  0  0
 27  4  1  0  0  0  0
 24 10  1  0  0  0  0
 20 16  1  0  0  0  0
  1 36  1  0  0  0  0
  1 37  1  0  0  0  0
  1 38  1  0  0  0  0
  2 39  1  0  0  0  0
  2 40  1  0  0  0  0
  5 41  1  0  0  0  0
  6 42  1  0  0  0  0
  7 43  1  0  0  0  0
 11 44  1  0  0  0  0
 14 45  1  0  0  0  0
 14 46  1  0  0  0  0
 14 47  1  0  0  0  0
 15 48  1  0  0  0  0
 15 49  1  0  0  0  0
 15 50  1  0  0  0  0
 17 51  1  0  0  0  0
 19 52  1  0  0  0  0
 21 53  1  0  0  0  0
 21 54  1  0  0  0  0
 21 55  1  0  0  0  0
 22 56  1  0  0  0  0
 23 57  1  0  0  0  0
 27 58  1  0  0  0  0
 28 59  1  0  0  0  0
 28 60  1  0  0  0  0
 29 61  1  0  0  0  0
 29 62  1  0  0  0  0
 30 63  1  0  0  0  0
 30 64  1  0  0  0  0
 31 65  1  0  0  0  0
 31 66  1  0  0  0  0
 33 67  1  0  0  0  0
 33 68  1  0  0  0  0
 33 69  1  0  0  0  0
M  CHG  1  15   1
M  END
> <BIOSOLVEIT.HYDE_ESTIMATED_AFFINITY_LOWER_BOUNDARY [nM]>
369.492790

> <BIOSOLVEIT.HYDE_ESTIMATED_AFFINITY_UPPER_BOUNDARY [nM]>
36711.293300

> <BIOSOLVEIT.HYDE_LIGAND_EFFICIENCY range: ++, +, 0, -, -->
-

> <BIOSOLVEIT.HYDE_LIGAND_LIPOPHILIC_EFFICIENCY range: ++, +, 0, -, -->
--

> <BIOSOLVEIT.INTER_CLASH range: red, yellow, green>
green

> <BIOSOLVEIT.INTRA_CLASH range: red, yellow, green>
yellow

> <BIOSOLVEIT.LOGP>
3.87958

> <BIOSOLVEIT.MOLECULAR WEIGHT>
472.61

> <BIOSOLVEIT.MOLECULE_CHECKSUM>
LTMxLjAxNjI7MC44ODYxNzY=

> <BIOSOLVEIT.TORSION_QUALITY range: red, yellow, green, not rotatable>
green

> <BIOSOLVEIT.TPSA>
98.79

$$$$
1MZC_BNE_3
foHydescor03192112113D 1   1.00000     0.00000     0
Hydescorer 1.1.0 fol007
 69 72  0  0  0  0            999 V2000
   14.3334  136.1340   -6.4688 C   0  0  0  0  0  0  0  0  0  0  0  0
   14.0857  136.2959   -4.9618 C   0  0  0  0  0  0  0  0  0  0  0  0
   15.2717  135.9566   -4.0794 C   0  0  1  0  0  0  0  0  0  0  0  0
   15.1147  134.5195   -3.6119 C   0  0  0  0  0  0  0  0  0  0  0  0
   13.9067  133.8556   -3.8000 C   0  0  0  0  0  0  0  0  0  0  0  0
   13.7855  132.5401   -3.3641 C   0  0  0  0  0  0  0  0  0  0  0  0
   14.8488  131.8885   -2.7480 C   0  0  0  0  0  0  0  0  0  0  0  0
   16.0478  132.5709   -2.5697 C   0  0  0  0  0  0  0  0  0  0  0  0
   17.0849  131.9454   -1.9720 O   0  0  0  0  0  0  0  0  0  0  0  0
   18.4063  132.4206   -1.9525 C   0  0  0  0  0  0  0  0  0  0  0  0
   18.9428  132.8515   -0.7437 C   0  0  0  0  0  0  0  0  0  0  0  0
   20.2508  133.3237   -0.7167 C   0  0  0  0  0  0  0  0  0  0  0  0
   20.8475  133.7974    0.5990 C   0  0  2  0  0  0  0  0  0  0  0  0
   21.4146  135.2335    0.5103 C   0  0  0  0  0  0  0  0  0  0  0  0
   21.9412  132.8695    0.9542 N   0  3  0  0  0  0  0  0  0  0  0  0
   19.7455  133.8179    1.6731 C   0  0  0  0  0  0  0  0  0  0  0  0
   19.6336  132.9492    2.7187 C   0  0  0  0  0  0  0  0  0  0  0  0
   18.5279  133.3190    3.4256 N   0  0  0  0  0  0  0  0  0  0  0  0
   17.9855  134.3656    2.8409 C   0  0  0  0  0  0  0  0  0  0  0  0
   18.7213  134.7083    1.7495 N   0  0  0  0  0  0  0  0  0  0  0  0
   18.4572  135.8200    0.8240 C   0  0  0  0  0  0  0  0  0  0  0  0
   21.0202  133.3693   -1.8749 C   0  0  0  0  0  0  0  0  0  0  0  0
   20.4731  132.9358   -3.0780 C   0  0  0  0  0  0  0  0  0  0  0  0
   19.1660  132.4613   -3.1169 C   0  0  0  0  0  0  0  0  0  0  0  0
   18.5681  131.9874   -4.4316 C   0  0  0  0  0  0  0  0  0  0  0  0
   18.1124  131.6266   -5.4324 N   0  0  0  0  0  0  0  0  0  0  0  0
   16.1908  133.8863   -2.9981 C   0  0  0  0  0  0  0  0  0  0  0  0
   16.4665  135.9758   -5.0353 C   0  0  0  0  0  0  0  0  0  0  0  0
   17.8563  135.7691   -4.4279 C   0  0  0  0  0  0  0  0  0  0  0  0
   18.4186  136.9767   -3.6846 C   0  0  0  0  0  0  0  0  0  0  0  0
   17.8190  137.2445   -2.2940 C   0  0  0  0  0  0  0  0  0  0  0  0
   16.3520  137.4255   -2.1092 N   0  0  0  0  0  0  0  0  0  0  0  0
   15.9920  138.2980   -0.9818 C   0  0  0  0  0  0  0  0  0  0  0  0
   15.2627  136.8893   -2.8568 C   0  0  0  0  0  0  0  0  0  0  0  0
   14.1537  137.2196   -2.4730 O   0  0  0  0  0  0  0  0  0  0  0  0
   13.5036  136.3776   -6.9710 H   0  0  0  0  0  0  0  0  0  0  0  0
   15.0817  136.7348   -6.7500 H   0  0  0  0  0  0  0  0  0  0  0  0
   14.5761  135.1843   -6.6666 H   0  0  0  0  0  0  0  0  0  0  0  0
   13.3267  135.6971   -4.7056 H   0  0  0  0  0  0  0  0  0  0  0  0
   13.8324  137.2478   -4.7891 H   0  0  0  0  0  0  0  0  0  0  0  0
   13.1373  134.3170   -4.2418 H   0  0  0  0  0  0  0  0  0  0  0  0
   12.9207  132.0556   -3.4956 H   0  0  0  0  0  0  0  0  0  0  0  0
   14.7527  130.9427   -2.4377 H   0  0  0  0  0  0  0  0  0  0  0  0
   18.3964  132.8221    0.0934 H   0  0  0  0  0  0  0  0  0  0  0  0
   21.7939  135.4974    1.3971 H   0  0  0  0  0  0  0  0  0  0  0  0
   22.1346  135.2654   -0.1830 H   0  0  0  0  0  0  0  0  0  0  0  0
   20.6820  135.8662    0.2594 H   0  0  0  0  0  0  0  0  0  0  0  0
   22.3885  133.1861    1.7907 H   0  0  0  0  0  0  0  0  0  0  0  0
   21.5668  131.9542    1.1024 H   0  0  0  0  0  0  0  0  0  0  0  0
   22.6085  132.8403    0.2100 H   0  0  0  0  0  0  0  0  0  0  0  0
   20.2459  132.1866    2.9272 H   0  0  0  0  0  0  0  0  0  0  0  0
   17.1597  134.8365    3.1512 H   0  0  0  0  0  0  0  0  0  0  0  0
   19.1603  135.8363    0.1131 H   0  0  0  0  0  0  0  0  0  0  0  0
   17.5591  135.6962    0.4019 H   0  0  0  0  0  0  0  0  0  0  0  0
   18.4724  136.6839    1.3276 H   0  0  0  0  0  0  0  0  0  0  0  0
   21.9593  133.7111   -1.8427 H   0  0  0  0  0  0  0  0  0  0  0  0
   21.0194  132.9654   -3.9151 H   0  0  0  0  0  0  0  0  0  0  0  0
   17.0557  134.3707   -2.8667 H   0  0  0  0  0  0  0  0  0  0  0  0
   16.4689  136.8639   -5.4951 H   0  0  0  0  0  0  0  0  0  0  0  0
   16.3230  135.2516   -5.7098 H   0  0  0  0  0  0  0  0  0  0  0  0
   18.4877  135.5383   -5.1681 H   0  0  0  0  0  0  0  0  0  0  0  0
   17.8035  135.0053   -3.7845 H   0  0  0  0  0  0  0  0  0  0  0  0
   18.2584  137.7865   -4.2491 H   0  0  0  0  0  0  0  0  0  0  0  0
   19.4026  136.8375   -3.5730 H   0  0  0  0  0  0  0  0  0  0  0  0
   18.2527  138.0789   -1.9540 H   0  0  0  0  0  0  0  0  0  0  0  0
   18.0843  136.4720   -1.7172 H   0  0  0  0  0  0  0  0  0  0  0  0
   14.9965  138.3710   -0.9214 H   0  0  0  0  0  0  0  0  0  0  0  0
   16.3498  137.9100   -0.1325 H   0  0  0  0  0  0  0  0  0  0  0  0
   16.3848  139.2064   -1.1247 H   0  0  0  0  0  0  0  0  0  0  0  0
  1  2  1  0  0  0  0
  2  3  1  0  0  0  0
  3  4  1  0  0  0  0
  4  5  2  0  0  0  0
  5  6  1  0  0  0  0
  6  7  2  0  0  0  0
  7  8  1  0  0  0  0
  8  9  1  0  0  0  0
  9 10  1  0  0  0  0
 10 11  2  0  0  0  0
 11 12  1  0  0  0  0
 12 13  1  0  0  0  0
 13 14  1  0  0  0  0
 13 15  1  0  0  0  0
 13 16  1  0  0  0  0
 16 17  2  0  0  0  0
 17 18  1  0  0  0  0
 18 19  2  0  0  0  0
 19 20  1  0  0  0  0
 20 21  1  0  0  0  0
 12 22  2  0  0  0  0
 22 23  1  0  0  0  0
 23 24  2  0  0  0  0
 24 25  1  0  0  0  0
 25 26  3  0  0  0  0
  8 27  2  0  0  0  0
  3 28  1  0  0  0  0
 28 29  1  0  0  0  0
 29 30  1  0  0  0  0
 30 31  1  0  0  0  0
 31 32  1  0  0  0  0
 32 33  1  0  0  0  0
 32 34  1  0  0  0  0
 34 35  2  0  0  0  0
 34  3  1  0  0  0  0
 27  4  1  0  0  0  0
 24 10  1  0  0  0  0
 20 16  1  0  0  0  0
  1 36  1  0  0  0  0
  1 37  1  0  0  0  0
  1 38  1  0  0  0  0
  2 39  1  0  0  0  0
  2 40  1  0  0  0  0
  5 41  1  0  0  0  0
  6 42  1  0  0  0  0
  7 43  1  0  0  0  0
 11 44  1  0  0  0  0
 14 45  1  0  0  0  0
 14 46  1  0  0  0  0
 14 47  1  0  0  0  0
 15 48  1  0  0  0  0
 15 49  1  0  0  0  0
 15 50  1  0  0  0  0
 17 51  1  0  0  0  0
 19 52  1  0  0  0  0
 21 53  1  0  0  0  0
 21 54  1  0  0  0  0
 21 55  1  0  0  0  0
 22 56  1  0  0  0  0
 23 57  1  0  0  0  0
 27 58  1  0  0  0  0
 28 59  1  0  0  0  0
 28 60  1  0  0  0  0
 29 61  1  0  0  0  0
 29 62  1  0  0  0  0
 30 63  1  0  0  0  0
 30 64  1  0  0  0  0
 31 65  1  0  0  0  0
 31 66  1  0  0  0  0
 33 67  1  0  0  0  0
 33 68  1  0  0  0  0
 33 69  1  0  0  0  0
M  CHG  1  15   1
M  END
> <BIOSOLVEIT.HYDE_ESTIMATED_AFFINITY_LOWER_BOUNDARY [nM]>
513.326958

> <BIOSOLVEIT.HYDE_ESTIMATED_AFFINITY_UPPER_BOUNDARY [nM]>
51002.068306

> <BIOSOLVEIT.HYDE_LIGAND_EFFICIENCY range: ++, +, 0, -, -->
-

> <BIOSOLVEIT.HYDE_LIGAND_LIPOPHILIC_EFFICIENCY range: ++, +, 0, -, -->
--

> <BIOSOLVEIT.INTER_CLASH range: red, yellow, green>
green

> <BIOSOLVEIT.INTRA_CLASH range: red, yellow, green>
yellow

> <BIOSOLVEIT.LOGP>
3.87958

> <BIOSOLVEIT.MOLECULAR WEIGHT>
472.61

> <BIOSOLVEIT.MOLECULE_CHECKSUM>
LTMwLjIwMTE7MC44NjI4ODk=

> <BIOSOLVEIT.TORSION_QUALITY range: red, yellow, green, not rotatable>
green

> <BIOSOLVEIT.TPSA>
98.79

$$$$
1LD7_U66_1
foHydescor03192112113D 1   1.00000     0.00000     0
Hydescorer 1.1.0 fol007
 62 67  0  0  0  0            999 V2000
   13.1173  138.4680    0.8056 N   0  0  0  0  0  0  0  0  0  0  0  0
   14.0605  137.7974    0.8138 C   0  0  0  0  0  0  0  0  0  0  0  0
   15.2599  136.9440    0.8236 C   0  0  2  0  0  0  0  0  0  0  0  0
   16.5279  137.8093    0.7935 C   0  0  0  0  0  0  0  0  0  0  0  0
   17.7680  136.9591    0.7152 C   0  0  0  0  0  0  0  0  0  0  0  0
   17.7803  135.7189    0.1762 C   0  0  0  0  0  0  0  0  0  0  0  0
   16.4957  135.0569   -0.3141 C   0  0  0  0  0  0  0  0  0  0  0  0
   15.2593  135.9914   -0.3808 C   0  0  2  0  0  0  0  0  0  0  0  0
   15.2660  136.7631   -1.5855 O   0  0  0  0  0  0  0  0  0  0  0  0
   15.1523  136.2315   -2.8734 C   0  0  0  0  0  0  0  0  0  0  0  0
   14.2562  135.2005   -3.1930 C   0  0  0  0  0  0  0  0  0  0  0  0
   14.2216  134.6834   -4.4935 C   0  0  0  0  0  0  0  0  0  0  0  0
   15.1486  135.1234   -5.4542 C   0  0  0  0  0  0  0  0  0  0  0  0
   15.1604  134.5725   -6.7429 C   0  0  0  0  0  0  0  0  0  0  0  0
   16.1372  134.9611   -7.6622 C   0  0  0  0  0  0  0  0  0  0  0  0
   17.1448  135.8539   -7.2879 C   0  0  0  0  0  0  0  0  0  0  0  0
   17.1661  136.4070   -5.9976 C   0  0  0  0  0  0  0  0  0  0  0  0
   16.1031  136.1100   -5.1064 C   0  0  0  0  0  0  0  0  0  0  0  0
   15.9906  136.7438   -3.8574 C   0  0  0  0  0  0  0  0  0  0  0  0
   18.3434  137.1110   -5.5470 N   0  0  0  0  0  0  0  0  0  0  0  0
   19.0535  138.1521   -6.2747 C   0  0  0  0  0  0  0  0  0  0  0  0
   20.2770  138.5124   -5.4000 C   0  0  0  0  0  0  0  0  0  0  0  0
   19.9777  137.9638   -3.9902 C   0  0  2  0  0  0  0  0  0  0  0  0
   21.1681  137.4134   -3.3090 N   0  3  0  0  0  0  0  0  0  0  0  0
   20.9371  137.2606   -1.8494 C   0  0  0  0  0  0  0  0  0  0  0  0
   21.5291  135.9560   -1.2917 C   0  0  0  0  0  0  0  0  0  0  0  0
   20.6547  134.7686   -1.6080 C   0  0  0  0  0  0  0  0  0  0  0  0
   20.8260  133.9228   -2.6836 C   0  0  0  0  0  0  0  0  0  0  0  0
   19.8552  132.9885   -2.6785 N   0  0  0  0  0  0  0  0  0  0  0  0
   19.1048  133.2870   -1.5972 C   0  0  0  0  0  0  0  0  0  0  0  0
   19.5531  134.3715   -0.9307 N   0  0  0  0  0  0  0  0  0  0  0  0
   19.0252  134.8633    0.3468 C   0  0  0  0  0  0  0  0  0  0  0  0
   18.9713  136.9210   -4.2915 C   0  0  0  0  0  0  0  0  0  0  0  0
   18.6963  135.9593   -3.5265 O   0  0  0  0  0  0  0  0  0  0  0  0
   15.2612  136.4008    1.6632 H   0  0  0  0  0  0  0  0  0  0  0  0
   16.5644  138.3628    1.6255 H   0  0  0  0  0  0  0  0  0  0  0  0
   16.4937  138.4099   -0.0053 H   0  0  0  0  0  0  0  0  0  0  0  0
   18.6230  137.3290    1.0788 H   0  0  0  0  0  0  0  0  0  0  0  0
   16.2803  134.3016    0.3050 H   0  0  0  0  0  0  0  0  0  0  0  0
   16.6629  134.6979   -1.2323 H   0  0  0  0  0  0  0  0  0  0  0  0
   14.4289  135.4349   -0.3553 H   0  0  0  0  0  0  0  0  0  0  0  0
   13.6427  134.8355   -2.4927 H   0  0  0  0  0  0  0  0  0  0  0  0
   13.5354  133.9989   -4.7397 H   0  0  0  0  0  0  0  0  0  0  0  0
   14.4682  133.8999   -7.0045 H   0  0  0  0  0  0  0  0  0  0  0  0
   16.1154  134.5983   -8.5938 H   0  0  0  0  0  0  0  0  0  0  0  0
   17.8570  136.1011   -7.9449 H   0  0  0  0  0  0  0  0  0  0  0  0
   16.5192  137.5726   -3.6742 H   0  0  0  0  0  0  0  0  0  0  0  0
   18.4668  138.9520   -6.4004 H   0  0  0  0  0  0  0  0  0  0  0  0
   19.3505  137.8130   -7.1674 H   0  0  0  0  0  0  0  0  0  0  0  0
   20.3989  139.5044   -5.3668 H   0  0  0  0  0  0  0  0  0  0  0  0
   21.1036  138.0872   -5.7688 H   0  0  0  0  0  0  0  0  0  0  0  0
   19.5657  138.6804   -3.4275 H   0  0  0  0  0  0  0  0  0  0  0  0
   21.9401  138.0325   -3.4529 H   0  0  0  0  0  0  0  0  0  0  0  0
   21.3813  136.5180   -3.6999 H   0  0  0  0  0  0  0  0  0  0  0  0
   19.9518  137.2642   -1.6787 H   0  0  0  0  0  0  0  0  0  0  0  0
   21.3603  138.0329   -1.3754 H   0  0  0  0  0  0  0  0  0  0  0  0
   21.6177  136.0383   -0.2990 H   0  0  0  0  0  0  0  0  0  0  0  0
   22.4321  135.8107   -1.6960 H   0  0  0  0  0  0  0  0  0  0  0  0
   21.5573  133.9922   -3.3621 H   0  0  0  0  0  0  0  0  0  0  0  0
   18.3015  132.7603   -1.3193 H   0  0  0  0  0  0  0  0  0  0  0  0
   19.7313  135.4114    0.7950 H   0  0  0  0  0  0  0  0  0  0  0  0
   18.7974  134.0779    0.9225 H   0  0  0  0  0  0  0  0  0  0  0  0
  1  2  3  0  0  0  0
  2  3  1  0  0  0  0
  3  4  1  0  0  0  0
  4  5  1  0  0  0  0
  5  6  2  0  0  0  0
  6  7  1  0  0  0  0
  7  8  1  0  0  0  0
  8  9  1  0  0  0  0
  9 10  1  0  0  0  0
 10 11  2  0  0  0  0
 11 12  1  0  0  0  0
 12 13  2  0  0  0  0
 13 14  1  0  0  0  0
 14 15  2  0  0  0  0
 15 16  1  0  0  0  0
 16 17  2  0  0  0  0
 17 18  1  0  0  0  0
 18 19  2  0  0  0  0
 17 20  1  0  0  0  0
 20 21  1  0  0  0  0
 21 22  1  0  0  0  0
 22 23  1  0  0  0  0
 23 24  1  0  0  0  0
 24 25  1  0  0  0  0
 25 26  1  0  0  0  0
 26 27  1  0  0  0  0
 27 28  2  0  0  0  0
 28 29  1  0  0  0  0
 29 30  2  0  0  0  0
 30 31  1  0  0  0  0
 31 32  1  0  0  0  0
 23 33  1  0  0  0  0
 33 34  2  0  0  0  0
  8  3  1  0  0  0  0
 19 10  1  0  0  0  0
 33 20  1  0  0  0  0
 32  6  1  0  0  0  0
 18 13  1  0  0  0  0
 31 27  1  0  0  0  0
  3 35  1  0  0  0  0
  4 36  1  0  0  0  0
  4 37  1  0  0  0  0
  5 38  1  0  0  0  0
  7 39  1  0  0  0  0
  7 40  1  0  0  0  0
  8 41  1  0  0  0  0
 11 42  1  0  0  0  0
 12 43  1  0  0  0  0
 14 44  1  0  0  0  0
 15 45  1  0  0  0  0
 16 46  1  0  0  0  0
 19 47  1  0  0  0  0
 21 48  1  0  0  0  0
 21 49  1  0  0  0  0
 22 50  1  0  0  0  0
 22 51  1  0  0  0  0
 23 52  1  0  0  0  0
 24 53  1  0  0  0  0
 24 54  1  0  0  0  0
 25 55  1  0  0  0  0
 25 56  1  0  0  0  0
 26 57  1  0  0  0  0
 26 58  1  0  0  0  0
 28 59  1  0  0  0  0
 30 60  1  0  0  0  0
 32 61  1  0  0  0  0
 32 62  1  0  0  0  0
M  CHG  1  24   1
M  END
> <BIOSOLVEIT.HYDE_ESTIMATED_AFFINITY_LOWER_BOUNDARY [nM]>
924787.364065

> <BIOSOLVEIT.HYDE_ESTIMATED_AFFINITY_UPPER_BOUNDARY [nM]>
91883092.395492

> <BIOSOLVEIT.HYDE_LIGAND_EFFICIENCY range: ++, +, 0, -, -->
--

> <BIOSOLVEIT.HYDE_LIGAND_LIPOPHILIC_EFFICIENCY range: ++, +, 0, -, -->
--

> <BIOSOLVEIT.INTER_CLASH range: red, yellow, green>
green

> <BIOSOLVEIT.INTRA_CLASH range: red, yellow, green>
yellow

> <BIOSOLVEIT.LOGP>
2.56868

> <BIOSOLVEIT.MOLECULAR WEIGHT>
454.551

> <BIOSOLVEIT.MOLECULE_CHECKSUM>
LTExLjYxNzk7MC4zNDE3MDI=

> <BIOSOLVEIT.TORSION_QUALITY range: red, yellow, green, not rotatable>
not rotatable

> <BIOSOLVEIT.TPSA>
87.76

$$$$
1LD7_U66_2
foHydescor03192112113D 1   1.00000     0.00000     0
Hydescorer 1.1.0 fol007
 62 67  0  0  0  0            999 V2000
   20.4549  138.0817   -7.3682 N   0  0  0  0  0  0  0  0  0  0  0  0
   19.8360  138.4172   -6.4497 C   0  0  0  0  0  0  0  0  0  0  0  0
   19.0482  138.8435   -5.2816 C   0  0  2  0  0  0  0  0  0  0  0  0
   19.8887  138.7258   -4.0021 C   0  0  0  0  0  0  0  0  0  0  0  0
   19.0783  139.0733   -2.7818 C   0  0  0  0  0  0  0  0  0  0  0  0
   17.7339  138.9381   -2.7250 C   0  0  0  0  0  0  0  0  0  0  0  0
   16.9306  138.5013   -3.9468 C   0  0  0  0  0  0  0  0  0  0  0  0
   17.7780  137.9919   -5.1422 C   0  0  2  0  0  0  0  0  0  0  0  0
   18.1524  136.6234   -4.9573 O   0  0  0  0  0  0  0  0  0  0  0  0
   17.2565  135.5514   -4.9094 C   0  0  0  0  0  0  0  0  0  0  0  0
   16.1601  135.4387   -5.7774 C   0  0  0  0  0  0  0  0  0  0  0  0
   15.2757  134.3609   -5.6491 C   0  0  0  0  0  0  0  0  0  0  0  0
   15.4246  133.4460   -4.5924 C   0  0  0  0  0  0  0  0  0  0  0  0
   14.5125  132.3959   -4.4206 C   0  0  0  0  0  0  0  0  0  0  0  0
   14.6258  131.5421   -3.3213 C   0  0  0  0  0  0  0  0  0  0  0  0
   15.6090  131.7630   -2.3532 C   0  0  0  0  0  0  0  0  0  0  0  0
   16.5243  132.8184   -2.4925 C   0  0  0  0  0  0  0  0  0  0  0  0
   16.4882  133.6065   -3.6715 C   0  0  0  0  0  0  0  0  0  0  0  0
   17.4657  134.5808   -3.9359 C   0  0  0  0  0  0  0  0  0  0  0  0
   17.3536  133.1908   -1.3706 N   0  0  0  0  0  0  0  0  0  0  0  0
   18.1415  132.2863   -0.5467 C   0  0  0  0  0  0  0  0  0  0  0  0
   18.7714  133.1686    0.5565 C   0  0  0  0  0  0  0  0  0  0  0  0
   18.6658  134.6245    0.0592 C   0  0  2  0  0  0  0  0  0  0  0  0
   18.3684  135.5928    1.1353 N   0  3  0  0  0  0  0  0  0  0  0  0
   18.6566  136.9862    0.7079 C   0  0  0  0  0  0  0  0  0  0  0  0
   17.5911  137.9837    1.1908 C   0  0  0  0  0  0  0  0  0  0  0  0
   16.3470  137.9240    0.3405 C   0  0  0  0  0  0  0  0  0  0  0  0
   15.2207  137.1850    0.6353 C   0  0  0  0  0  0  0  0  0  0  0  0
   14.3126  137.3399   -0.3480 N   0  0  0  0  0  0  0  0  0  0  0  0
   14.9076  138.1708   -1.2294 C   0  0  0  0  0  0  0  0  0  0  0  0
   16.1505  138.5349   -0.8505 N   0  0  0  0  0  0  0  0  0  0  0  0
   16.9931  139.5230   -1.5334 C   0  0  0  0  0  0  0  0  0  0  0  0
   17.5615  134.5178   -0.9207 C   0  0  0  0  0  0  0  0  0  0  0  0
   16.8688  135.4920   -1.3168 O   0  0  0  0  0  0  0  0  0  0  0  0
   18.7823  139.7996   -5.4047 H   0  0  0  0  0  0  0  0  0  0  0  0
   20.6671  139.3503   -4.0649 H   0  0  0  0  0  0  0  0  0  0  0  0
   20.2211  137.7866   -3.9158 H   0  0  0  0  0  0  0  0  0  0  0  0
   19.5567  139.4205   -1.9752 H   0  0  0  0  0  0  0  0  0  0  0  0
   16.3921  139.2837   -4.2597 H   0  0  0  0  0  0  0  0  0  0  0  0
   16.3157  137.7643   -3.6663 H   0  0  0  0  0  0  0  0  0  0  0  0
   17.2391  138.0715   -5.9808 H   0  0  0  0  0  0  0  0  0  0  0  0
   16.0105  136.1273   -6.4869 H   0  0  0  0  0  0  0  0  0  0  0  0
   14.5359  134.2416   -6.3113 H   0  0  0  0  0  0  0  0  0  0  0  0
   13.7792  132.2577   -5.0865 H   0  0  0  0  0  0  0  0  0  0  0  0
   13.9997  130.7682   -3.2264 H   0  0  0  0  0  0  0  0  0  0  0  0
   15.6611  131.1640   -1.5542 H   0  0  0  0  0  0  0  0  0  0  0  0
   18.3212  134.5762   -3.4182 H   0  0  0  0  0  0  0  0  0  0  0  0
   18.8555  131.8488   -1.0934 H   0  0  0  0  0  0  0  0  0  0  0  0
   17.5558  131.5850   -0.1404 H   0  0  0  0  0  0  0  0  0  0  0  0
   19.7297  132.9185    0.6948 H   0  0  0  0  0  0  0  0  0  0  0  0
   18.2710  133.0588    1.4154 H   0  0  0  0  0  0  0  0  0  0  0  0
   19.5103  134.8855   -0.4083 H   0  0  0  0  0  0  0  0  0  0  0  0
   18.9303  135.3748    1.9332 H   0  0  0  0  0  0  0  0  0  0  0  0
   17.4012  135.5210    1.3790 H   0  0  0  0  0  0  0  0  0  0  0  0
   18.6923  137.0141   -0.2911 H   0  0  0  0  0  0  0  0  0  0  0  0
   19.5434  137.2589    1.0809 H   0  0  0  0  0  0  0  0  0  0  0  0
   17.9694  138.9084    1.1477 H   0  0  0  0  0  0  0  0  0  0  0  0
   17.3485  137.7666    2.1364 H   0  0  0  0  0  0  0  0  0  0  0  0
   15.0971  136.6215    1.4521 H   0  0  0  0  0  0  0  0  0  0  0  0
   14.4732  138.4837   -2.0741 H   0  0  0  0  0  0  0  0  0  0  0  0
   17.6640  139.8766   -0.8816 H   0  0  0  0  0  0  0  0  0  0  0  0
   16.4127  140.2718   -1.8536 H   0  0  0  0  0  0  0  0  0  0  0  0
  1  2  3  0  0  0  0
  2  3  1  0  0  0  0
  3  4  1  0  0  0  0
  4  5  1  0  0  0  0
  5  6  2  0  0  0  0
  6  7  1  0  0  0  0
  7  8  1  0  0  0  0
  8  9  1  0  0  0  0
  9 10  1  0  0  0  0
 10 11  2  0  0  0  0
 11 12  1  0  0  0  0
 12 13  2  0  0  0  0
 13 14  1  0  0  0  0
 14 15  2  0  0  0  0
 15 16  1  0  0  0  0
 16 17  2  0  0  0  0
 17 18  1  0  0  0  0
 18 19  2  0  0  0  0
 17 20  1  0  0  0  0
 20 21  1  0  0  0  0
 21 22  1  0  0  0  0
 22 23  1  0  0  0  0
 23 24  1  0  0  0  0
 24 25  1  0  0  0  0
 25 26  1  0  0  0  0
 26 27  1  0  0  0  0
 27 28  2  0  0  0  0
 28 29  1  0  0  0  0
 29 30  2  0  0  0  0
 30 31  1  0  0  0  0
 31 32  1  0  0  0  0
 23 33  1  0  0  0  0
 33 34  2  0  0  0  0
  8  3  1  0  0  0  0
 19 10  1  0  0  0  0
 33 20  1  0  0  0  0
 32  6  1  0  0  0  0
 18 13  1  0  0  0  0
 31 27  1  0  0  0  0
  3 35  1  0  0  0  0
  4 36  1  0  0  0  0
  4 37  1  0  0  0  0
  5 38  1  0  0  0  0
  7 39  1  0  0  0  0
  7 40  1  0  0  0  0
  8 41  1  0  0  0  0
 11 42  1  0  0  0  0
 12 43  1  0  0  0  0
 14 44  1  0  0  0  0
 15 45  1  0  0  0  0
 16 46  1  0  0  0  0
 19 47  1  0  0  0  0
 21 48  1  0  0  0  0
 21 49  1  0  0  0  0
 22 50  1  0  0  0  0
 22 51  1  0  0  0  0
 23 52  1  0  0  0  0
 24 53  1  0  0  0  0
 24 54  1  0  0  0  0
 25 55  1  0  0  0  0
 25 56  1  0  0  0  0
 26 57  1  0  0  0  0
 26 58  1  0  0  0  0
 28 59  1  0  0  0  0
 30 60  1  0  0  0  0
 32 61  1  0  0  0  0
 32 62  1  0  0  0  0
M  CHG  1  24   1
M  END
> <BIOSOLVEIT.HYDE_ESTIMATED_AFFINITY_LOWER_BOUNDARY [nM]>
1797847.772827

> <BIOSOLVEIT.HYDE_ESTIMATED_AFFINITY_UPPER_BOUNDARY [nM]>
178626805.947639

> <BIOSOLVEIT.HYDE_LIGAND_EFFICIENCY range: ++, +, 0, -, -->
--

> <BIOSOLVEIT.HYDE_LIGAND_LIPOPHILIC_EFFICIENCY range: ++, +, 0, -, -->
--

> <BIOSOLVEIT.INTER_CLASH range: red, yellow, green>
green

> <BIOSOLVEIT.INTRA_CLASH range: red, yellow, green>
yellow

> <BIOSOLVEIT.LOGP>
2.56868

> <BIOSOLVEIT.MOLECULAR WEIGHT>
454.551

> <BIOSOLVEIT.MOLECULE_CHECKSUM>
LTkuOTY5OTswLjI5MzIzMg==

> <BIOSOLVEIT.TORSION_QUALITY range: red, yellow, green, not rotatable>
not rotatable

> <BIOSOLVEIT.TPSA>
87.76

$$$$
1LD7_U66_3
foHydescor03192112113D 1   1.00000     0.00000     0
Hydescorer 1.1.0 fol007
 62 67  0  0  0  0            999 V2000
   13.3682  138.4286    1.2506 N   0  0  0  0  0  0  0  0  0  0  0  0
   14.3455  137.8089    1.2623 C   0  0  0  0  0  0  0  0  0  0  0  0
   15.5883  137.0202    1.2766 C   0  0  2  0  0  0  0  0  0  0  0  0
   16.8040  137.9407    1.0970 C   0  0  0  0  0  0  0  0  0  0  0  0
   18.0825  137.1491    1.0211 C   0  0  0  0  0  0  0  0  0  0  0  0
   18.1330  135.8674    0.5927 C   0  0  0  0  0  0  0  0  0  0  0  0
   16.8618  135.1011    0.2380 C   0  0  0  0  0  0  0  0  0  0  0  0
   15.5747  135.9636    0.1621 C   0  0  2  0  0  0  0  0  0  0  0  0
   15.4747  136.6229   -1.1038 O   0  0  0  0  0  0  0  0  0  0  0  0
   15.3211  135.9722   -2.3314 C   0  0  0  0  0  0  0  0  0  0  0  0
   14.4663  134.8735   -2.5068 C   0  0  0  0  0  0  0  0  0  0  0  0
   14.3900  134.2400   -3.7529 C   0  0  0  0  0  0  0  0  0  0  0  0
   15.2387  134.6366   -4.8008 C   0  0  0  0  0  0  0  0  0  0  0  0
   15.2111  133.9728   -6.0349 C   0  0  0  0  0  0  0  0  0  0  0  0
   16.1145  134.3245   -7.0401 C   0  0  0  0  0  0  0  0  0  0  0  0
   17.0908  135.2961   -6.8047 C   0  0  0  0  0  0  0  0  0  0  0  0
   17.1514  135.9638   -5.5712 C   0  0  0  0  0  0  0  0  0  0  0  0
   16.1555  135.6964   -4.5969 C   0  0  0  0  0  0  0  0  0  0  0  0
   16.0761  136.4342   -3.4037 C   0  0  0  0  0  0  0  0  0  0  0  0
   18.3112  136.7629   -5.2533 N   0  0  0  0  0  0  0  0  0  0  0  0
   18.9235  137.7677   -6.1096 C   0  0  0  0  0  0  0  0  0  0  0  0
   20.1709  138.2655   -5.3425 C   0  0  0  0  0  0  0  0  0  0  0  0
   19.9781  137.8324   -3.8752 C   0  0  2  0  0  0  0  0  0  0  0  0
   21.2315  137.4052   -3.2191 N   0  3  0  0  0  0  0  0  0  0  0  0
   21.0880  137.3737   -1.7407 C   0  0  0  0  0  0  0  0  0  0  0  0
   21.7792  136.1556   -1.1068 C   0  0  0  0  0  0  0  0  0  0  0  0
   20.9548  134.9027   -1.2664 C   0  0  0  0  0  0  0  0  0  0  0  0
   21.1137  133.9728   -2.2720 C   0  0  0  0  0  0  0  0  0  0  0  0
   20.1968  132.9959   -2.1287 N   0  0  0  0  0  0  0  0  0  0  0  0
   19.4905  133.3535   -1.0356 C   0  0  0  0  0  0  0  0  0  0  0  0
   19.9143  134.5145   -0.4938 N   0  0  0  0  0  0  0  0  0  0  0  0
   19.4300  135.0931    0.7645 C   0  0  0  0  0  0  0  0  0  0  0  0
   19.0152  136.7182   -4.0249 C   0  0  0  0  0  0  0  0  0  0  0  0
   18.8343  135.8172   -3.1639 O   0  0  0  0  0  0  0  0  0  0  0  0
   15.6642  136.5558    2.1590 H   0  0  0  0  0  0  0  0  0  0  0  0
   16.8550  138.5683    1.8739 H   0  0  0  0  0  0  0  0  0  0  0  0
   16.6942  138.4642    0.2521 H   0  0  0  0  0  0  0  0  0  0  0  0
   18.9344  137.5920    1.3006 H   0  0  0  0  0  0  0  0  0  0  0  0
   16.7215  134.3952    0.9322 H   0  0  0  0  0  0  0  0  0  0  0  0
   16.9987  134.6694   -0.6535 H   0  0  0  0  0  0  0  0  0  0  0  0
   14.7783  135.3714    0.2846 H   0  0  0  0  0  0  0  0  0  0  0  0
   13.9122  134.5434   -1.7426 H   0  0  0  0  0  0  0  0  0  0  0  0
   13.7297  133.5031   -3.8978 H   0  0  0  0  0  0  0  0  0  0  0  0
   14.5434  133.2460   -6.1959 H   0  0  0  0  0  0  0  0  0  0  0  0
   16.0623  133.8784   -7.9336 H   0  0  0  0  0  0  0  0  0  0  0  0
   17.7522  135.5178   -7.5212 H   0  0  0  0  0  0  0  0  0  0  0  0
   16.5681  137.3013   -3.3248 H   0  0  0  0  0  0  0  0  0  0  0  0
   18.2883  138.5232   -6.2703 H   0  0  0  0  0  0  0  0  0  0  0  0
   19.1902  137.3645   -6.9850 H   0  0  0  0  0  0  0  0  0  0  0  0
   20.2403  139.2612   -5.4034 H   0  0  0  0  0  0  0  0  0  0  0  0
   20.9984  137.8500   -5.7203 H   0  0  0  0  0  0  0  0  0  0  0  0
   19.5586  138.5758   -3.3543 H   0  0  0  0  0  0  0  0  0  0  0  0
   21.9600  138.0460   -3.4614 H   0  0  0  0  0  0  0  0  0  0  0  0
   21.4718  136.4897   -3.5420 H   0  0  0  0  0  0  0  0  0  0  0  0
   20.1146  137.3440   -1.5137 H   0  0  0  0  0  0  0  0  0  0  0  0
   21.4935  138.2056   -1.3615 H   0  0  0  0  0  0  0  0  0  0  0  0
   21.9165  136.3314   -0.1319 H   0  0  0  0  0  0  0  0  0  0  0  0
   22.6657  136.0191   -1.5490 H   0  0  0  0  0  0  0  0  0  0  0  0
   21.8026  134.0166   -2.9955 H   0  0  0  0  0  0  0  0  0  0  0  0
   18.7331  132.8150   -0.6662 H   0  0  0  0  0  0  0  0  0  0  0  0
   20.1283  135.7137    1.1211 H   0  0  0  0  0  0  0  0  0  0  0  0
   19.2764  134.3528    1.4189 H   0  0  0  0  0  0  0  0  0  0  0  0
  1  2  3  0  0  0  0
  2  3  1  0  0  0  0
  3  4  1  0  0  0  0
  4  5  1  0  0  0  0
  5  6  2  0  0  0  0
  6  7  1  0  0  0  0
  7  8  1  0  0  0  0
  8  9  1  0  0  0  0
  9 10  1  0  0  0  0
 10 11  2  0  0  0  0
 11 12  1  0  0  0  0
 12 13  2  0  0  0  0
 13 14  1  0  0  0  0
 14 15  2  0  0  0  0
 15 16  1  0  0  0  0
 16 17  2  0  0  0  0
 17 18  1  0  0  0  0
 18 19  2  0  0  0  0
 17 20  1  0  0  0  0
 20 21  1  0  0  0  0
 21 22  1  0  0  0  0
 22 23  1  0  0  0  0
 23 24  1  0  0  0  0
 24 25  1  0  0  0  0
 25 26  1  0  0  0  0
 26 27  1  0  0  0  0
 27 28  2  0  0  0  0
 28 29  1  0  0  0  0
 29 30  2  0  0  0  0
 30 31  1  0  0  0  0
 31 32  1  0  0  0  0
 23 33  1  0  0  0  0
 33 34  2  0  0  0  0
  8  3  1  0  0  0  0
 19 10  1  0  0  0  0
 33 20  1  0  0  0  0
 32  6  1  0  0  0  0
 18 13  1  0  0  0  0
 31 27  1  0  0  0  0
  3 35  1  0  0  0  0
  4 36  1  0  0  0  0
  4 37  1  0  0  0  0
  5 38  1  0  0  0  0
  7 39  1  0  0  0  0
  7 40  1  0  0  0  0
  8 41  1  0  0  0  0
 11 42  1  0  0  0  0
 12 43  1  0  0  0  0
 14 44  1  0  0  0  0
 15 45  1  0  0  0  0
 16 46  1  0  0  0  0
 19 47  1  0  0  0  0
 21 48  1  0  0  0  0
 21 49  1  0  0  0  0
 22 50  1  0  0  0  0
 22 51  1  0  0  0  0
 23 52  1  0  0  0  0
 24 53  1  0  0  0  0
 24 54  1  0  0  0  0
 25 55  1  0  0  0  0
 25 56  1  0  0  0  0
 26 57  1  0  0  0  0
 26 58  1  0  0  0  0
 28 59  1  0  0  0  0
 30 60  1  0  0  0  0
 32 61  1  0  0  0  0
 32 62  1  0  0  0  0
M  CHG  1  24   1
M  END
> <BIOSOLVEIT.HYDE_ESTIMATED_AFFINITY_LOWER_BOUNDARY [nM]>
5891138.603837

> <BIOSOLVEIT.HYDE_ESTIMATED_AFFINITY_UPPER_BOUNDARY [nM]>
585319451.459169

> <BIOSOLVEIT.HYDE_LIGAND_EFFICIENCY range: ++, +, 0, -, -->
--

> <BIOSOLVEIT.HYDE_LIGAND_LIPOPHILIC_EFFICIENCY range: ++, +, 0, -, -->
--

> <BIOSOLVEIT.INTER_CLASH range: red, yellow, green>
green

> <BIOSOLVEIT.INTRA_CLASH range: red, yellow, green>
yellow

> <BIOSOLVEIT.LOGP>
2.56868

> <BIOSOLVEIT.MOLECULAR WEIGHT>
454.551

> <BIOSOLVEIT.MOLECULE_CHECKSUM>
LTcuMDI3NzI7MC4yMDY2OTg=

> <BIOSOLVEIT.TORSION_QUALITY range: red, yellow, green, not rotatable>
not rotatable

> <BIOSOLVEIT.TPSA>
87.76

$$$$
1S63_778_1
foHydescor03192112113D 1   1.00000     0.00000     0
Hydescorer 1.1.0 fol007
 50 53  0  0  0  0            999 V2000
   22.3238  135.7887   -4.7862 N   0  0  0  0  0  0  0  0  0  0  0  0
   21.7110  135.1719   -4.0227 C   0  0  0  0  0  0  0  0  0  0  0  0
   20.9497  134.4022   -3.0742 C   0  0  0  0  0  0  0  0  0  0  0  0
   21.5674  133.9445   -1.9145 C   0  0  0  0  0  0  0  0  0  0  0  0
   20.8440  133.2003   -0.9888 C   0  0  0  0  0  0  0  0  0  0  0  0
   19.5040  132.9229   -1.2394 C   0  0  0  0  0  0  0  0  0  0  0  0
   18.7022  132.1092   -0.2367 C   0  0  0  0  0  0  0  0  0  0  0  0
   18.7662  132.7103    1.0988 N   0  0  0  0  0  0  0  0  0  0  0  0
   19.0405  132.0397    2.2549 C   0  0  0  0  0  0  0  0  0  0  0  0
   19.0115  132.9100    3.2401 N   0  0  0  0  0  0  0  0  0  0  0  0
   18.7194  134.1438    2.7313 C   0  0  0  0  0  0  0  0  0  0  0  0
   18.5627  134.0265    1.3811 C   0  0  0  0  0  0  0  0  0  0  0  0
   18.2352  135.1399    0.3998 C   0  0  0  0  0  0  0  0  0  0  0  0
   17.0129  135.8867    0.7888 N   0  3  2  0  0  0  0  0  0  0  0  0
   16.4810  136.6429   -0.3550 C   0  0  0  0  0  0  0  0  0  0  0  0
   15.1382  137.2423    0.0442 C   0  0  0  0  0  0  0  0  0  0  0  0
   15.2186  137.9903    1.3079 N   0  0  0  0  0  0  0  0  0  0  0  0
   14.2070  138.9081    1.6055 C   0  0  0  0  0  0  0  0  0  0  0  0
   12.8812  138.4866    1.6104 C   0  0  0  0  0  0  0  0  0  0  0  0
   11.8788  139.4037    1.9087 C   0  0  0  0  0  0  0  0  0  0  0  0
   12.1881  140.7280    2.1998 C   0  0  0  0  0  0  0  0  0  0  0  0
   13.5206  141.1281    2.1898 C   0  0  0  0  0  0  0  0  0  0  0  0
   13.9373  142.8183    2.5601 Cl  0  0  0  0  0  0  0  0  0  0  0  0
   14.5386  140.2277    1.8941 C   0  0  0  0  0  0  0  0  0  0  0  0
   16.2816  137.8005    2.2026 C   0  0  0  0  0  0  0  0  0  0  0  0
   16.3371  138.3810    3.2725 O   0  0  0  0  0  0  0  0  0  0  0  0
   17.4061  136.8397    1.8345 C   0  0  0  0  0  0  0  0  0  0  0  0
   18.8836  133.3783   -2.3980 C   0  0  0  0  0  0  0  0  0  0  0  0
   19.6096  134.1230   -3.3221 C   0  0  0  0  0  0  0  0  0  0  0  0
   22.5314  134.1507   -1.7467 H   0  0  0  0  0  0  0  0  0  0  0  0
   21.2818  132.8686   -0.1532 H   0  0  0  0  0  0  0  0  0  0  0  0
   19.0742  131.1819   -0.1961 H   0  0  0  0  0  0  0  0  0  0  0  0
   17.7481  132.0728   -0.5336 H   0  0  0  0  0  0  0  0  0  0  0  0
   19.2297  131.0613    2.3381 H   0  0  0  0  0  0  0  0  0  0  0  0
   18.6349  134.9892    3.2588 H   0  0  0  0  0  0  0  0  0  0  0  0
   18.0941  134.7401   -0.5059 H   0  0  0  0  0  0  0  0  0  0  0  0
   19.0053  135.7771    0.3666 H   0  0  0  0  0  0  0  0  0  0  0  0
   16.3197  135.2566    1.1386 H   0  0  0  0  0  0  0  0  0  0  0  0
   16.3583  136.0309   -1.1362 H   0  0  0  0  0  0  0  0  0  0  0  0
   17.1171  137.3741   -0.6011 H   0  0  0  0  0  0  0  0  0  0  0  0
   14.4736  136.5026    0.1494 H   0  0  0  0  0  0  0  0  0  0  0  0
   14.8347  137.8628   -0.6788 H   0  0  0  0  0  0  0  0  0  0  0  0
   12.6517  137.5358    1.4020 H   0  0  0  0  0  0  0  0  0  0  0  0
   10.9238  139.1071    1.9137 H   0  0  0  0  0  0  0  0  0  0  0  0
   11.4633  141.3831    2.4134 H   0  0  0  0  0  0  0  0  0  0  0  0
   15.4936  140.5242    1.8892 H   0  0  0  0  0  0  0  0  0  0  0  0
   17.6705  136.3277    2.6518 H   0  0  0  0  0  0  0  0  0  0  0  0
   18.1873  137.3710    1.5067 H   0  0  0  0  0  0  0  0  0  0  0  0
   17.9198  133.1713   -2.5661 H   0  0  0  0  0  0  0  0  0  0  0  0
   19.1718  134.4549   -4.1576 H   0  0  0  0  0  0  0  0  0  0  0  0
  1  2  3  0  0  0  0
  2  3  1  0  0  0  0
  3  4  2  0  0  0  0
  4  5  1  0  0  0  0
  5  6  2  0  0  0  0
  6  7  1  0  0  0  0
  7  8  1  0  0  0  0
  8  9  1  0  0  0  0
  9 10  2  0  0  0  0
 10 11  1  0  0  0  0
 11 12  2  0  0  0  0
 12 13  1  0  0  0  0
 13 14  1  0  0  0  0
 14 15  1  0  0  0  0
 15 16  1  0  0  0  0
 16 17  1  0  0  0  0
 17 18  1  0  0  0  0
 18 19  2  0  0  0  0
 19 20  1  0  0  0  0
 20 21  2  0  0  0  0
 21 22  1  0  0  0  0
 22 23  1  0  0  0  0
 22 24  2  0  0  0  0
 17 25  1  0  0  0  0
 25 26  2  0  0  0  0
 25 27  1  0  0  0  0
  6 28  1  0  0  0  0
 28 29  2  0  0  0  0
 29  3  1  0  0  0  0
 12  8  1  0  0  0  0
 27 14  1  0  0  0  0
 24 18  1  0  0  0  0
  4 30  1  0  0  0  0
  5 31  1  0  0  0  0
  7 32  1  0  0  0  0
  7 33  1  0  0  0  0
  9 34  1  0  0  0  0
 11 35  1  0  0  0  0
 13 36  1  0  0  0  0
 13 37  1  0  0  0  0
 14 38  1  0  0  0  0
 15 39  1  0  0  0  0
 15 40  1  0  0  0  0
 16 41  1  0  0  0  0
 16 42  1  0  0  0  0
 19 43  1  0  0  0  0
 20 44  1  0  0  0  0
 21 45  1  0  0  0  0
 24 46  1  0  0  0  0
 27 47  1  0  0  0  0
 27 48  1  0  0  0  0
 28 49  1  0  0  0  0
 29 50  1  0  0  0  0
M  CHG  1  14   1
M  END
> <BIOSOLVEIT.HYDE_ESTIMATED_AFFINITY_LOWER_BOUNDARY [nM]>
3647662.587709

> <BIOSOLVEIT.HYDE_ESTIMATED_AFFINITY_UPPER_BOUNDARY [nM]>
362416844.776923

> <BIOSOLVEIT.HYDE_LIGAND_EFFICIENCY range: ++, +, 0, -, -->
--

> <BIOSOLVEIT.HYDE_LIGAND_LIPOPHILIC_EFFICIENCY range: ++, +, 0, -, -->
--

> <BIOSOLVEIT.INTER_CLASH range: red, yellow, green>
green

> <BIOSOLVEIT.INTRA_CLASH range: red, yellow, green>
green

> <BIOSOLVEIT.LOGP>
1.88818

> <BIOSOLVEIT.MOLECULAR WEIGHT>
406.895

> <BIOSOLVEIT.MOLECULE_CHECKSUM>
LTguMjE2MDQ7MC4yODMzMTI=

> <BIOSOLVEIT.TORSION_QUALITY range: red, yellow, green, not rotatable>
yellow

> <BIOSOLVEIT.TPSA>
66.36

$$$$
1S63_778_2
foHydescor03192112113D 1   1.00000     0.00000     0
Hydescorer 1.1.0 fol007
 50 53  0  0  0  0            999 V2000
   13.3598  139.2692    1.9837 N   0  0  0  0  0  0  0  0  0  0  0  0
   14.1700  138.4796    1.7410 C   0  0  0  0  0  0  0  0  0  0  0  0
   15.2360  137.4445    1.4209 C   0  0  0  0  0  0  0  0  0  0  0  0
   15.1390  136.7066    0.2454 C   0  0  0  0  0  0  0  0  0  0  0  0
   16.1074  135.7564   -0.0610 C   0  0  0  0  0  0  0  0  0  0  0  0
   17.1654  135.5574    0.8199 C   0  0  0  0  0  0  0  0  0  0  0  0
   18.2192  134.5315    0.5012 C   0  0  0  0  0  0  0  0  0  0  0  0
   18.9066  134.0852    1.7219 N   0  0  0  0  0  0  0  0  0  0  0  0
   18.3276  133.3970    2.7481 C   0  0  0  0  0  0  0  0  0  0  0  0
   19.2534  133.1752    3.6551 N   0  0  0  0  0  0  0  0  0  0  0  0
   20.4321  133.7158    3.2249 C   0  0  0  0  0  0  0  0  0  0  0  0
   20.2217  134.2922    2.0063 C   0  0  0  0  0  0  0  0  0  0  0  0
   21.2423  135.0049    1.1519 C   0  0  0  0  0  0  0  0  0  0  0  0
   22.0353  134.0693    0.3388 N   0  3  2  0  0  0  0  0  0  0  0  0
   22.3199  134.7133   -0.9642 C   0  0  0  0  0  0  0  0  0  0  0  0
   21.7851  134.0215   -2.2133 C   0  0  0  0  0  0  0  0  0  0  0  0
   20.4996  133.3303   -2.0138 N   0  0  0  0  0  0  0  0  0  0  0  0
   19.5376  133.3232   -3.0313 C   0  0  0  0  0  0  0  0  0  0  0  0
   19.1734  132.1162   -3.6195 C   0  0  0  0  0  0  0  0  0  0  0  0
   18.2161  132.1148   -4.6288 C   0  0  0  0  0  0  0  0  0  0  0  0
   17.6247  133.3004   -5.0516 C   0  0  0  0  0  0  0  0  0  0  0  0
   18.0033  134.4961   -4.4495 C   0  0  0  0  0  0  0  0  0  0  0  0
   17.2578  136.0240   -4.9760 Cl  0  0  0  0  0  0  0  0  0  0  0  0
   18.9584  134.5204   -3.4387 C   0  0  0  0  0  0  0  0  0  0  0  0
   20.2636  132.6955   -0.7857 C   0  0  0  0  0  0  0  0  0  0  0  0
   19.2146  132.1048   -0.5764 O   0  0  0  0  0  0  0  0  0  0  0  0
   21.3477  132.7674    0.2890 C   0  0  0  0  0  0  0  0  0  0  0  0
   17.2652  136.2930    1.9962 C   0  0  0  0  0  0  0  0  0  0  0  0
   16.2952  137.2431    2.3000 C   0  0  0  0  0  0  0  0  0  0  0  0
   14.3731  136.8594   -0.3791 H   0  0  0  0  0  0  0  0  0  0  0  0
   16.0438  135.2229   -0.9044 H   0  0  0  0  0  0  0  0  0  0  0  0
   18.8890  134.9338   -0.1228 H   0  0  0  0  0  0  0  0  0  0  0  0
   17.7865  133.7435    0.0630 H   0  0  0  0  0  0  0  0  0  0  0  0
   17.3705  133.1122    2.8008 H   0  0  0  0  0  0  0  0  0  0  0  0
   21.3011  133.6929    3.7191 H   0  0  0  0  0  0  0  0  0  0  0  0
   21.8603  135.5175    1.7481 H   0  0  0  0  0  0  0  0  0  0  0  0
   20.7662  135.6383    0.5420 H   0  0  0  0  0  0  0  0  0  0  0  0
   22.9095  133.9311    0.8043 H   0  0  0  0  0  0  0  0  0  0  0  0
   23.3134  134.7778   -1.0576 H   0  0  0  0  0  0  0  0  0  0  0  0
   21.9273  135.6326   -0.9377 H   0  0  0  0  0  0  0  0  0  0  0  0
   22.4607  133.3478   -2.5129 H   0  0  0  0  0  0  0  0  0  0  0  0
   21.6634  134.7115   -2.9267 H   0  0  0  0  0  0  0  0  0  0  0  0
   19.5946  131.2600   -3.3205 H   0  0  0  0  0  0  0  0  0  0  0  0
   17.9499  131.2506   -5.0556 H   0  0  0  0  0  0  0  0  0  0  0  0
   16.9373  133.2935   -5.7778 H   0  0  0  0  0  0  0  0  0  0  0  0
   19.2243  135.3847   -3.0116 H   0  0  0  0  0  0  0  0  0  0  0  0
   22.0264  132.0571    0.1027 H   0  0  0  0  0  0  0  0  0  0  0  0
   20.9239  132.5983    1.1788 H   0  0  0  0  0  0  0  0  0  0  0  0
   18.0308  136.1396    2.6210 H   0  0  0  0  0  0  0  0  0  0  0  0
   16.3590  137.7768    3.1432 H   0  0  0  0  0  0  0  0  0  0  0  0
  1  2  3  0  0  0  0
  2  3  1  0  0  0  0
  3  4  2  0  0  0  0
  4  5  1  0  0  0  0
  5  6  2  0  0  0  0
  6  7  1  0  0  0  0
  7  8  1  0  0  0  0
  8  9  1  0  0  0  0
  9 10  2  0  0  0  0
 10 11  1  0  0  0  0
 11 12  2  0  0  0  0
 12 13  1  0  0  0  0
 13 14  1  0  0  0  0
 14 15  1  0  0  0  0
 15 16  1  0  0  0  0
 16 17  1  0  0  0  0
 17 18  1  0  0  0  0
 18 19  2  0  0  0  0
 19 20  1  0  0  0  0
 20 21  2  0  0  0  0
 21 22  1  0  0  0  0
 22 23  1  0  0  0  0
 22 24  2  0  0  0  0
 17 25  1  0  0  0  0
 25 26  2  0  0  0  0
 25 27  1  0  0  0  0
  6 28  1  0  0  0  0
 28 29  2  0  0  0  0
 29  3  1  0  0  0  0
 12  8  1  0  0  0  0
 27 14  1  0  0  0  0
 24 18  1  0  0  0  0
  4 30  1  0  0  0  0
  5 31  1  0  0  0  0
  7 32  1  0  0  0  0
  7 33  1  0  0  0  0
  9 34  1  0  0  0  0
 11 35  1  0  0  0  0
 13 36  1  0  0  0  0
 13 37  1  0  0  0  0
 14 38  1  0  0  0  0
 15 39  1  0  0  0  0
 15 40  1  0  0  0  0
 16 41  1  0  0  0  0
 16 42  1  0  0  0  0
 19 43  1  0  0  0  0
 20 44  1  0  0  0  0
 21 45  1  0  0  0  0
 24 46  1  0  0  0  0
 27 47  1  0  0  0  0
 27 48  1  0  0  0  0
 28 49  1  0  0  0  0
 29 50  1  0  0  0  0
M  CHG  1  14   1
M  END
> <BIOSOLVEIT.HYDE_ESTIMATED_AFFINITY_LOWER_BOUNDARY [nM]>
3801.745844

> <BIOSOLVEIT.HYDE_ESTIMATED_AFFINITY_UPPER_BOUNDARY [nM]>
377725.927349

> <BIOSOLVEIT.HYDE_LIGAND_EFFICIENCY range: ++, +, 0, -, -->
-

> <BIOSOLVEIT.HYDE_LIGAND_LIPOPHILIC_EFFICIENCY range: ++, +, 0, -, -->
-

> <BIOSOLVEIT.INTER_CLASH range: red, yellow, green>
green

> <BIOSOLVEIT.INTRA_CLASH range: red, yellow, green>
yellow

> <BIOSOLVEIT.LOGP>
1.88818

> <BIOSOLVEIT.MOLECULAR WEIGHT>
406.895

> <BIOSOLVEIT.MOLECULE_CHECKSUM>
LTI1LjIzNzU7MC44NzAyNTk=

> <BIOSOLVEIT.TORSION_QUALITY range: red, yellow, green, not rotatable>
yellow

> <BIOSOLVEIT.TPSA>
66.36

$$$$
1S63_778_3
foHydescor03192112113D 1   1.00000     0.00000     0
Hydescorer 1.1.0 fol007
 50 53  0  0  0  0            999 V2000
   15.5968  140.9173    3.8417 N   0  0  0  0  0  0  0  0  0  0  0  0
   16.0122  139.9587    3.3440 C   0  0  0  0  0  0  0  0  0  0  0  0
   16.5579  138.6984    2.6929 C   0  0  0  0  0  0  0  0  0  0  0  0
   17.9284  138.5765    2.4856 C   0  0  0  0  0  0  0  0  0  0  0  0
   18.4422  137.4287    1.8916 C   0  0  0  0  0  0  0  0  0  0  0  0
   17.5708  136.4134    1.5108 C   0  0  0  0  0  0  0  0  0  0  0  0
   18.1135  135.1668    0.8655 C   0  0  0  0  0  0  0  0  0  0  0  0
   18.8459  134.3449    1.8402 N   0  0  0  0  0  0  0  0  0  0  0  0
   18.2963  133.7317    2.9281 C   0  0  0  0  0  0  0  0  0  0  0  0
   19.2577  133.0908    3.5558 N   0  0  0  0  0  0  0  0  0  0  0  0
   20.4306  133.2839    2.8822 C   0  0  0  0  0  0  0  0  0  0  0  0
   20.1795  134.0745    1.7989 C   0  0  0  0  0  0  0  0  0  0  0  0
   21.1776  134.5434    0.7677 C   0  0  0  0  0  0  0  0  0  0  0  0
   21.6391  133.4454   -0.0968 N   0  3  2  0  0  0  0  0  0  0  0  0
   21.9537  134.0063   -1.4309 C   0  0  0  0  0  0  0  0  0  0  0  0
   21.1541  133.4741   -2.6150 C   0  0  0  0  0  0  0  0  0  0  0  0
   19.7618  133.1199   -2.2897 N   0  0  0  0  0  0  0  0  0  0  0  0
   18.7392  133.3553   -3.2170 C   0  0  0  0  0  0  0  0  0  0  0  0
   18.3354  132.3289   -4.0647 C   0  0  0  0  0  0  0  0  0  0  0  0
   17.3180  132.5679   -4.9829 C   0  0  0  0  0  0  0  0  0  0  0  0
   16.7062  133.8143   -5.0601 C   0  0  0  0  0  0  0  0  0  0  0  0
   17.1252  134.8266   -4.2026 C   0  0  0  0  0  0  0  0  0  0  0  0
   16.3545  136.4286   -4.2853 Cl  0  0  0  0  0  0  0  0  0  0  0  0
   18.1406  134.6093   -3.2771 C   0  0  0  0  0  0  0  0  0  0  0  0
   19.4895  132.5565   -1.0345 C   0  0  0  0  0  0  0  0  0  0  0  0
   18.3509  132.2412   -0.7223 O   0  0  0  0  0  0  0  0  0  0  0  0
   20.6509  132.3533   -0.0624 C   0  0  0  0  0  0  0  0  0  0  0  0
   16.2002  136.5323    1.7160 C   0  0  0  0  0  0  0  0  0  0  0  0
   15.6891  137.6815    2.3110 C   0  0  0  0  0  0  0  0  0  0  0  0
   18.5438  139.3141    2.7636 H   0  0  0  0  0  0  0  0  0  0  0  0
   19.4261  137.3344    1.7400 H   0  0  0  0  0  0  0  0  0  0  0  0
   18.7334  135.4254    0.1246 H   0  0  0  0  0  0  0  0  0  0  0  0
   17.3536  134.6337    0.4937 H   0  0  0  0  0  0  0  0  0  0  0  0
   17.3344  133.7639    3.1995 H   0  0  0  0  0  0  0  0  0  0  0  0
   21.3214  132.9094    3.1394 H   0  0  0  0  0  0  0  0  0  0  0  0
   21.9672  134.9363    1.2387 H   0  0  0  0  0  0  0  0  0  0  0  0
   20.7473  135.2432    0.1976 H   0  0  0  0  0  0  0  0  0  0  0  0
   22.4911  133.0937    0.2911 H   0  0  0  0  0  0  0  0  0  0  0  0
   22.9198  133.8244   -1.6138 H   0  0  0  0  0  0  0  0  0  0  0  0
   21.8032  134.9938   -1.3854 H   0  0  0  0  0  0  0  0  0  0  0  0
   21.6133  132.6563   -2.9619 H   0  0  0  0  0  0  0  0  0  0  0  0
   21.1415  134.1765   -3.3267 H   0  0  0  0  0  0  0  0  0  0  0  0
   18.7712  131.4302   -4.0146 H   0  0  0  0  0  0  0  0  0  0  0  0
   17.0230  131.8343   -5.5950 H   0  0  0  0  0  0  0  0  0  0  0  0
   15.9756  133.9806   -5.7223 H   0  0  0  0  0  0  0  0  0  0  0  0
   18.4354  135.3429   -2.6648 H   0  0  0  0  0  0  0  0  0  0  0  0
   21.1144  131.4986   -0.2962 H   0  0  0  0  0  0  0  0  0  0  0  0
   20.2812  132.2893    0.8646 H   0  0  0  0  0  0  0  0  0  0  0  0
   15.5849  135.7950    1.4371 H   0  0  0  0  0  0  0  0  0  0  0  0
   14.7051  137.7756    2.4628 H   0  0  0  0  0  0  0  0  0  0  0  0
  1  2  3  0  0  0  0
  2  3  1  0  0  0  0
  3  4  2  0  0  0  0
  4  5  1  0  0  0  0
  5  6  2  0  0  0  0
  6  7  1  0  0  0  0
  7  8  1  0  0  0  0
  8  9  1  0  0  0  0
  9 10  2  0  0  0  0
 10 11  1  0  0  0  0
 11 12  2  0  0  0  0
 12 13  1  0  0  0  0
 13 14  1  0  0  0  0
 14 15  1  0  0  0  0
 15 16  1  0  0  0  0
 16 17  1  0  0  0  0
 17 18  1  0  0  0  0
 18 19  2  0  0  0  0
 19 20  1  0  0  0  0
 20 21  2  0  0  0  0
 21 22  1  0  0  0  0
 22 23  1  0  0  0  0
 22 24  2  0  0  0  0
 17 25  1  0  0  0  0
 25 26  2  0  0  0  0
 25 27  1  0  0  0  0
  6 28  1  0  0  0  0
 28 29  2  0  0  0  0
 29  3  1  0  0  0  0
 12  8  1  0  0  0  0
 27 14  1  0  0  0  0
 24 18  1  0  0  0  0
  4 30  1  0  0  0  0
  5 31  1  0  0  0  0
  7 32  1  0  0  0  0
  7 33  1  0  0  0  0
  9 34  1  0  0  0  0
 11 35  1  0  0  0  0
 13 36  1  0  0  0  0
 13 37  1  0  0  0  0
 14 38  1  0  0  0  0
 15 39  1  0  0  0  0
 15 40  1  0  0  0  0
 16 41  1  0  0  0  0
 16 42  1  0  0  0  0
 19 43  1  0  0  0  0
 20 44  1  0  0  0  0
 21 45  1  0  0  0  0
 24 46  1  0  0  0  0
 27 47  1  0  0  0  0
 27 48  1  0  0  0  0
 28 49  1  0  0  0  0
 29 50  1  0  0  0  0
M  CHG  1  14   1
M  END
> <BIOSOLVEIT.HYDE_ESTIMATED_AFFINITY_LOWER_BOUNDARY [nM]>
796.149705

> <BIOSOLVEIT.HYDE_ESTIMATED_AFFINITY_UPPER_BOUNDARY [nM]>
79102.180407

> <BIOSOLVEIT.HYDE_LIGAND_EFFICIENCY range: ++, +, 0, -, -->
-

> <BIOSOLVEIT.HYDE_LIGAND_LIPOPHILIC_EFFICIENCY range: ++, +, 0, -, -->
-

> <BIOSOLVEIT.INTER_CLASH range: red, yellow, green>
green

> <BIOSOLVEIT.INTRA_CLASH range: red, yellow, green>
green

> <BIOSOLVEIT.LOGP>
1.88818

> <BIOSOLVEIT.MOLECULAR WEIGHT>
406.895

> <BIOSOLVEIT.MOLECULE_CHECKSUM>
LTI5LjExMzI7MS4wMDM5

> <BIOSOLVEIT.TORSION_QUALITY range: red, yellow, green, not rotatable>
green

> <BIOSOLVEIT.TPSA>
66.36

$$$$
3E37_ED5_1
foHydescor03192112113D 1   1.00000     0.00000     0
Hydescorer 1.1.0 fol007
 85 88  0  0  0  0            999 V2000
   16.0420  140.3134    0.0009 C   0  0  0  0  0  0  0  0  0  0  0  0
   17.3713  139.5963   -0.1697 C   0  0  0  0  0  0  0  0  0  0  0  0
   18.3940  140.2550   -0.8445 C   0  0  0  0  0  0  0  0  0  0  0  0
   19.6196  139.6202   -1.0138 C   0  0  0  0  0  0  0  0  0  0  0  0
   19.8139  138.3382   -0.5102 C   0  0  0  0  0  0  0  0  0  0  0  0
   18.7923  137.6778    0.1648 C   0  0  0  0  0  0  0  0  0  0  0  0
   17.5659  138.3132    0.3337 C   0  0  0  0  0  0  0  0  0  0  0  0
   16.2737  137.4550    1.1979 S   0  0  0  0  0  0  0  0  0  0  0  0
   14.9965  137.6421    0.4290 O   0  0  0  0  0  0  0  0  0  0  0  0
   16.0886  138.0617    2.5623 O   0  0  0  0  0  0  0  0  0  0  0  0
   16.6277  135.7406    1.3435 N   0  0  0  0  0  0  0  0  0  0  0  0
   17.2242  135.1766    0.1140 C   0  0  0  0  0  0  0  0  0  0  0  0
   16.1990  134.5698   -0.8626 C   0  0  0  0  0  0  0  0  0  0  0  0
   16.8890  133.7898   -1.8964 N   0  0  0  0  0  0  0  0  0  0  0  0
   16.2964  132.5685   -2.4532 C   0  0  0  0  0  0  0  0  0  0  0  0
   16.2630  132.6461   -3.9718 C   0  0  0  0  0  0  0  0  0  0  0  0
   17.1069  131.9951   -4.8231 C   0  0  0  0  0  0  0  0  0  0  0  0
   16.7331  132.3347   -6.0896 N   0  0  0  0  0  0  0  0  0  0  0  0
   15.7078  133.1565   -6.0194 C   0  0  0  0  0  0  0  0  0  0  0  0
   15.3835  133.3677   -4.7155 N   0  0  0  0  0  0  0  0  0  0  0  0
   14.2981  134.2188   -4.2056 C   0  0  0  0  0  0  0  0  0  0  0  0
   18.2337  134.1416   -2.2522 C   0  0  0  0  0  0  0  0  0  0  0  0
   18.4679  135.3178   -2.9575 C   0  0  0  0  0  0  0  0  0  0  0  0
   19.7663  135.6706   -3.3094 C   0  0  0  0  0  0  0  0  0  0  0  0
   20.8179  134.8361   -2.9472 C   0  0  0  0  0  0  0  0  0  0  0  0
   22.2418  135.2107   -3.3242 C   0  0  0  0  0  0  0  0  0  0  0  0
   23.3259  135.4955   -3.6124 N   0  0  0  0  0  0  0  0  0  0  0  0
   20.5889  133.6592   -2.2416 C   0  0  0  0  0  0  0  0  0  0  0  0
   19.2887  133.3095   -1.8918 C   0  0  0  0  0  0  0  0  0  0  0  0
   17.4130  135.4235    2.5553 C   0  0  0  0  0  0  0  0  0  0  0  0
   18.9270  135.4325    2.2625 C   0  0  0  0  0  0  0  0  0  0  0  0
   19.7369  135.7076    3.5204 C   0  0  0  0  0  0  0  0  0  0  0  0
   20.0366  134.4327    4.2913 C   0  0  0  0  0  0  0  0  0  0  0  0
   20.9335  133.6071    3.4685 N   0  0  0  0  0  0  0  0  0  0  0  0
   21.8763  132.7371    4.0467 C   0  0  0  0  0  0  0  0  0  0  0  0
   22.3791  131.8041    3.3634 O   0  0  0  0  0  0  0  0  0  0  0  0
   22.2493  132.9201    5.3887 O   0  0  0  0  0  0  0  0  0  0  0  0
   22.7771  131.9188    6.2712 C   0  0  0  0  0  0  0  0  0  0  0  0
   24.3136  132.0074    6.3361 C   0  0  0  0  0  0  0  0  0  0  0  0
   22.3314  130.5130    5.8254 C   0  0  0  0  0  0  0  0  0  0  0  0
   22.2048  132.2002    7.6689 C   0  0  0  0  0  0  0  0  0  0  0  0
   20.7759  133.7442    2.0126 C   0  0  0  0  0  0  0  0  0  0  0  0
   19.3117  134.0552    1.7399 C   0  0  0  0  0  0  0  0  0  0  0  0
   15.4071  139.7243    0.5008 H   0  0  0  0  0  0  0  0  0  0  0  0
   16.1836  141.1608    0.5127 H   0  0  0  0  0  0  0  0  0  0  0  0
   15.6606  140.5270   -0.8985 H   0  0  0  0  0  0  0  0  0  0  0  0
   18.2490  141.1767   -1.2046 H   0  0  0  0  0  0  0  0  0  0  0  0
   20.3611  140.0852   -1.4975 H   0  0  0  0  0  0  0  0  0  0  0  0
   20.6972  137.8863   -0.6346 H   0  0  0  0  0  0  0  0  0  0  0  0
   18.9378  136.7563    0.5248 H   0  0  0  0  0  0  0  0  0  0  0  0
   17.8686  134.4591    0.3785 H   0  0  0  0  0  0  0  0  0  0  0  0
   17.7152  135.9073   -0.3604 H   0  0  0  0  0  0  0  0  0  0  0  0
   15.6786  135.3058   -1.2955 H   0  0  0  0  0  0  0  0  0  0  0  0
   15.5752  133.9724   -0.3585 H   0  0  0  0  0  0  0  0  0  0  0  0
   15.3638  132.4663   -2.1071 H   0  0  0  0  0  0  0  0  0  0  0  0
   16.8437  131.7792   -2.1747 H   0  0  0  0  0  0  0  0  0  0  0  0
   17.8567  131.3851   -4.5671 H   0  0  0  0  0  0  0  0  0  0  0  0
   15.2394  133.5631   -6.8038 H   0  0  0  0  0  0  0  0  0  0  0  0
   14.2910  134.1870   -3.2062 H   0  0  0  0  0  0  0  0  0  0  0  0
   14.4431  135.1608   -4.5082 H   0  0  0  0  0  0  0  0  0  0  0  0
   13.4220  133.8873   -4.5558 H   0  0  0  0  0  0  0  0  0  0  0  0
   17.7027  135.9094   -3.2114 H   0  0  0  0  0  0  0  0  0  0  0  0
   19.9415  136.5144   -3.8168 H   0  0  0  0  0  0  0  0  0  0  0  0
   21.3544  133.0682   -1.9874 H   0  0  0  0  0  0  0  0  0  0  0  0
   19.1136  132.4656   -1.3847 H   0  0  0  0  0  0  0  0  0  0  0  0
   17.1507  134.5166    2.8850 H   0  0  0  0  0  0  0  0  0  0  0  0
   17.2137  136.1048    3.2597 H   0  0  0  0  0  0  0  0  0  0  0  0
   19.1326  136.1250    1.5710 H   0  0  0  0  0  0  0  0  0  0  0  0
   19.2185  136.3274    4.1096 H   0  0  0  0  0  0  0  0  0  0  0  0
   20.6008  136.1392    3.2609 H   0  0  0  0  0  0  0  0  0  0  0  0
   19.1872  133.9364    4.4705 H   0  0  0  0  0  0  0  0  0  0  0  0
   20.4812  134.6565    5.1585 H   0  0  0  0  0  0  0  0  0  0  0  0
   24.6623  131.3033    6.9546 H   0  0  0  0  0  0  0  0  0  0  0  0
   24.6945  131.8666    5.4223 H   0  0  0  0  0  0  0  0  0  0  0  0
   24.5815  132.9099    6.6734 H   0  0  0  0  0  0  0  0  0  0  0  0
   22.7080  129.8299    6.4511 H   0  0  0  0  0  0  0  0  0  0  0  0
   21.3327  130.4608    5.8367 H   0  0  0  0  0  0  0  0  0  0  0  0
   22.6640  130.3361    4.8991 H   0  0  0  0  0  0  0  0  0  0  0  0
   22.5517  131.5197    8.3143 H   0  0  0  0  0  0  0  0  0  0  0  0
   22.4837  133.1136    7.9656 H   0  0  0  0  0  0  0  0  0  0  0  0
   21.2066  132.1505    7.6366 H   0  0  0  0  0  0  0  0  0  0  0  0
   21.0342  132.8912    1.5591 H   0  0  0  0  0  0  0  0  0  0  0  0
   21.3519  134.4888    1.6751 H   0  0  0  0  0  0  0  0  0  0  0  0
   18.7438  133.3664    2.1906 H   0  0  0  0  0  0  0  0  0  0  0  0
   19.1514  134.0256    0.7533 H   0  0  0  0  0  0  0  0  0  0  0  0
  1  2  1  0  0  0  0
  2  3  2  0  0  0  0
  3  4  1  0  0  0  0
  4  5  2  0  0  0  0
  5  6  1  0  0  0  0
  6  7  2  0  0  0  0
  7  8  1  0  0  0  0
  8  9  2  0  0  0  0
  8 10  2  0  0  0  0
  8 11  1  0  0  0  0
 11 12  1  0  0  0  0
 12 13  1  0  0  0  0
 13 14  1  0  0  0  0
 14 15  1  0  0  0  0
 15 16  1  0  0  0  0
 16 17  2  0  0  0  0
 17 18  1  0  0  0  0
 18 19  2  0  0  0  0
 19 20  1  0  0  0  0
 20 21  1  0  0  0  0
 14 22  1  0  0  0  0
 22 23  2  0  0  0  0
 23 24  1  0  0  0  0
 24 25  2  0  0  0  0
 25 26  1  0  0  0  0
 26 27  3  0  0  0  0
 25 28  1  0  0  0  0
 28 29  2  0  0  0  0
 11 30  1  0  0  0  0
 30 31  1  0  0  0  0
 31 32  1  0  0  0  0
 32 33  1  0  0  0  0
 33 34  1  0  0  0  0
 34 35  1  0  0  0  0
 35 36  2  0  0  0  0
 35 37  1  0  0  0  0
 37 38  1  0  0  0  0
 38 39  1  0  0  0  0
 38 40  1  0  0  0  0
 38 41  1  0  0  0  0
 34 42  1  0  0  0  0
 42 43  1  0  0  0  0
  7  2  1  0  0  0  0
 20 16  1  0  0  0  0
 29 22  1  0  0  0  0
 43 31  1  0  0  0  0
  1 44  1  0  0  0  0
  1 45  1  0  0  0  0
  1 46  1  0  0  0  0
  3 47  1  0  0  0  0
  4 48  1  0  0  0  0
  5 49  1  0  0  0  0
  6 50  1  0  0  0  0
 12 51  1  0  0  0  0
 12 52  1  0  0  0  0
 13 53  1  0  0  0  0
 13 54  1  0  0  0  0
 15 55  1  0  0  0  0
 15 56  1  0  0  0  0
 17 57  1  0  0  0  0
 19 58  1  0  0  0  0
 21 59  1  0  0  0  0
 21 60  1  0  0  0  0
 21 61  1  0  0  0  0
 23 62  1  0  0  0  0
 24 63  1  0  0  0  0
 28 64  1  0  0  0  0
 29 65  1  0  0  0  0
 30 66  1  0  0  0  0
 30 67  1  0  0  0  0
 31 68  1  0  0  0  0
 32 69  1  0  0  0  0
 32 70  1  0  0  0  0
 33 71  1  0  0  0  0
 33 72  1  0  0  0  0
 39 73  1  0  0  0  0
 39 74  1  0  0  0  0
 39 75  1  0  0  0  0
 40 76  1  0  0  0  0
 40 77  1  0  0  0  0
 40 78  1  0  0  0  0
 41 79  1  0  0  0  0
 41 80  1  0  0  0  0
 41 81  1  0  0  0  0
 42 82  1  0  0  0  0
 42 83  1  0  0  0  0
 43 84  1  0  0  0  0
 43 85  1  0  0  0  0
M  END
> <BIOSOLVEIT.HYDE_ESTIMATED_AFFINITY_LOWER_BOUNDARY [nM]>
4893099993.522183

> <BIOSOLVEIT.HYDE_ESTIMATED_AFFINITY_UPPER_BOUNDARY [nM]>
486158414653.168213

> <BIOSOLVEIT.HYDE_LIGAND_EFFICIENCY range: ++, +, 0, -, -->
--

> <BIOSOLVEIT.HYDE_LIGAND_LIPOPHILIC_EFFICIENCY range: ++, +, 0, -, -->
--

> <BIOSOLVEIT.INTER_CLASH range: red, yellow, green>
red

> <BIOSOLVEIT.INTRA_CLASH range: red, yellow, green>
red

> <BIOSOLVEIT.LOGP>
5.5954

> <BIOSOLVEIT.MOLECULAR WEIGHT>
606.787

> <BIOSOLVEIT.MOLECULE_CHECKSUM>
OS42MzYxNTsw

> <BIOSOLVEIT.TORSION_QUALITY range: red, yellow, green, not rotatable>
red

> <BIOSOLVEIT.TPSA>
111.77

$$$$
3E37_ED5_2
foHydescor03192112113D 1   1.00000     0.00000     0
Hydescorer 1.1.0 fol007
 85 88  0  0  0  0            999 V2000
   14.1444  135.7579   -5.0748 C   0  0  0  0  0  0  0  0  0  0  0  0
   15.6335  136.0578   -5.1306 C   0  0  0  0  0  0  0  0  0  0  0  0
   16.3719  135.5370   -6.1884 C   0  0  0  0  0  0  0  0  0  0  0  0
   17.7360  135.7970   -6.2619 C   0  0  0  0  0  0  0  0  0  0  0  0
   18.3498  136.5714   -5.2830 C   0  0  0  0  0  0  0  0  0  0  0  0
   17.6132  137.0929   -4.2244 C   0  0  0  0  0  0  0  0  0  0  0  0
   16.2483  136.8323   -4.1509 C   0  0  0  0  0  0  0  0  0  0  0  0
   15.3241  137.5062   -2.7927 S   0  0  0  0  0  0  0  0  0  0  0  0
   13.9953  137.9697   -3.3190 O   0  0  0  0  0  0  0  0  0  0  0  0
   16.0461  138.7022   -2.2339 O   0  0  0  0  0  0  0  0  0  0  0  0
   15.0730  136.3100   -1.5309 N   0  0  0  0  0  0  0  0  0  0  0  0
   15.2027  134.9238   -2.0276 C   0  0  0  0  0  0  0  0  0  0  0  0
   16.1811  134.0529   -1.2166 C   0  0  0  0  0  0  0  0  0  0  0  0
   17.0518  133.2961   -2.1234 N   0  0  0  0  0  0  0  0  0  0  0  0
   16.6545  131.9830   -2.6435 C   0  0  0  0  0  0  0  0  0  0  0  0
   16.2371  132.0996   -4.1013 C   0  0  0  0  0  0  0  0  0  0  0  0
   17.0574  131.9516   -5.1809 C   0  0  0  0  0  0  0  0  0  0  0  0
   16.2878  132.1315   -6.2919 N   0  0  0  0  0  0  0  0  0  0  0  0
   15.0525  132.3788   -5.9125 C   0  0  0  0  0  0  0  0  0  0  0  0
   14.9822  132.3602   -4.5542 N   0  0  0  0  0  0  0  0  0  0  0  0
   13.7844  132.5872   -3.7320 C   0  0  0  0  0  0  0  0  0  0  0  0
   18.3790  133.7784   -2.3779 C   0  0  0  0  0  0  0  0  0  0  0  0
   18.7538  135.0302   -1.9006 C   0  0  0  0  0  0  0  0  0  0  0  0
   20.0369  135.5102   -2.1405 C   0  0  0  0  0  0  0  0  0  0  0  0
   20.9319  134.7246   -2.8585 C   0  0  0  0  0  0  0  0  0  0  0  0
   22.3376  135.2367   -3.1264 C   0  0  0  0  0  0  0  0  0  0  0  0
   23.4075  135.6270   -3.3314 N   0  0  0  0  0  0  0  0  0  0  0  0
   20.5620  133.4719   -3.3375 C   0  0  0  0  0  0  0  0  0  0  0  0
   19.2775  132.9956   -3.0958 C   0  0  0  0  0  0  0  0  0  0  0  0
   15.9003  136.5659   -0.3327 C   0  0  0  0  0  0  0  0  0  0  0  0
   15.1013  137.3159    0.7524 C   0  0  0  0  0  0  0  0  0  0  0  0
   13.8496  137.9544    0.1671 C   0  0  0  0  0  0  0  0  0  0  0  0
   13.2204  138.7334    1.3093 C   0  0  0  0  0  0  0  0  0  0  0  0
   14.1105  139.8566    1.6378 N   0  0  0  0  0  0  0  0  0  0  0  0
   13.6163  140.9995    2.2783 C   0  0  0  0  0  0  0  0  0  0  0  0
   12.3782  141.1255    2.4819 O   0  0  0  0  0  0  0  0  0  0  0  0
   14.5130  141.9995    2.6902 O   0  0  0  0  0  0  0  0  0  0  0  0
   14.1702  143.2588    3.2872 C   0  0  0  0  0  0  0  0  0  0  0  0
   13.3696  143.0442    4.5859 C   0  0  0  0  0  0  0  0  0  0  0  0
   13.3758  144.1309    2.2961 C   0  0  0  0  0  0  0  0  0  0  0  0
   15.4876  143.9715    3.6288 C   0  0  0  0  0  0  0  0  0  0  0  0
   15.5369  139.7628    1.2865 C   0  0  0  0  0  0  0  0  0  0  0  0
   15.9693  138.3170    1.5009 C   0  0  0  0  0  0  0  0  0  0  0  0
   13.7468  136.1931   -4.2670 H   0  0  0  0  0  0  0  0  0  0  0  0
   13.7015  136.1143   -5.8975 H   0  0  0  0  0  0  0  0  0  0  0  0
   14.0052  134.7689   -5.0232 H   0  0  0  0  0  0  0  0  0  0  0  0
   15.9258  134.9807   -6.8895 H   0  0  0  0  0  0  0  0  0  0  0  0
   18.2755  135.4273   -7.0183 H   0  0  0  0  0  0  0  0  0  0  0  0
   19.3310  136.7553   -5.3407 H   0  0  0  0  0  0  0  0  0  0  0  0
   18.0598  137.6491   -3.5236 H   0  0  0  0  0  0  0  0  0  0  0  0
   15.5237  134.9582   -2.9741 H   0  0  0  0  0  0  0  0  0  0  0  0
   14.3005  134.4937   -1.9972 H   0  0  0  0  0  0  0  0  0  0  0  0
   15.6624  133.4154   -0.6470 H   0  0  0  0  0  0  0  0  0  0  0  0
   16.7418  134.6407   -0.6334 H   0  0  0  0  0  0  0  0  0  0  0  0
   15.8863  131.6339   -2.1069 H   0  0  0  0  0  0  0  0  0  0  0  0
   17.4264  131.3515   -2.5705 H   0  0  0  0  0  0  0  0  0  0  0  0
   18.0366  131.7497   -5.1613 H   0  0  0  0  0  0  0  0  0  0  0  0
   14.2837  132.5534   -6.5278 H   0  0  0  0  0  0  0  0  0  0  0  0
   14.0256  132.5140   -2.7643 H   0  0  0  0  0  0  0  0  0  0  0  0
   13.4214  133.5005   -3.9168 H   0  0  0  0  0  0  0  0  0  0  0  0
   13.0917  131.9016   -3.9557 H   0  0  0  0  0  0  0  0  0  0  0  0
   18.1007  135.5848   -1.3849 H   0  0  0  0  0  0  0  0  0  0  0  0
   20.3125  136.4094   -1.8008 H   0  0  0  0  0  0  0  0  0  0  0  0
   21.2155  132.9172   -3.8523 H   0  0  0  0  0  0  0  0  0  0  0  0
   19.0018  132.0965   -3.4358 H   0  0  0  0  0  0  0  0  0  0  0  0
   16.6909  137.1190   -0.5952 H   0  0  0  0  0  0  0  0  0  0  0  0
   16.2135  135.6921    0.0393 H   0  0  0  0  0  0  0  0  0  0  0  0
   14.7989  136.6339    1.4183 H   0  0  0  0  0  0  0  0  0  0  0  0
   13.2207  137.2511   -0.1646 H   0  0  0  0  0  0  0  0  0  0  0  0
   14.0893  138.5686   -0.5848 H   0  0  0  0  0  0  0  0  0  0  0  0
   13.1144  138.1399    2.1072 H   0  0  0  0  0  0  0  0  0  0  0  0
   12.3249  139.0804    1.0307 H   0  0  0  0  0  0  0  0  0  0  0  0
   13.1403  143.9312    4.9866 H   0  0  0  0  0  0  0  0  0  0  0  0
   12.5285  142.5440    4.3801 H   0  0  0  0  0  0  0  0  0  0  0  0
   13.9203  142.5181    5.2338 H   0  0  0  0  0  0  0  0  0  0  0  0
   13.1463  145.0026    2.7289 H   0  0  0  0  0  0  0  0  0  0  0  0
   13.9306  144.2991    1.4813 H   0  0  0  0  0  0  0  0  0  0  0  0
   12.5350  143.6569    2.0347 H   0  0  0  0  0  0  0  0  0  0  0  0
   15.2884  144.8569    4.0487 H   0  0  0  0  0  0  0  0  0  0  0  0
   16.0141  143.4105    4.2676 H   0  0  0  0  0  0  0  0  0  0  0  0
   16.0178  144.1108    2.7925 H   0  0  0  0  0  0  0  0  0  0  0  0
   16.0733  140.3698    1.8728 H   0  0  0  0  0  0  0  0  0  0  0  0
   15.6702  140.0204    0.3294 H   0  0  0  0  0  0  0  0  0  0  0  0
   15.9204  138.1121    2.4784 H   0  0  0  0  0  0  0  0  0  0  0  0
   16.9133  138.2173    1.1862 H   0  0  0  0  0  0  0  0  0  0  0  0
  1  2  1  0  0  0  0
  2  3  2  0  0  0  0
  3  4  1  0  0  0  0
  4  5  2  0  0  0  0
  5  6  1  0  0  0  0
  6  7  2  0  0  0  0
  7  8  1  0  0  0  0
  8  9  2  0  0  0  0
  8 10  2  0  0  0  0
  8 11  1  0  0  0  0
 11 12  1  0  0  0  0
 12 13  1  0  0  0  0
 13 14  1  0  0  0  0
 14 15  1  0  0  0  0
 15 16  1  0  0  0  0
 16 17  2  0  0  0  0
 17 18  1  0  0  0  0
 18 19  2  0  0  0  0
 19 20  1  0  0  0  0
 20 21  1  0  0  0  0
 14 22  1  0  0  0  0
 22 23  2  0  0  0  0
 23 24  1  0  0  0  0
 24 25  2  0  0  0  0
 25 26  1  0  0  0  0
 26 27  3  0  0  0  0
 25 28  1  0  0  0  0
 28 29  2  0  0  0  0
 11 30  1  0  0  0  0
 30 31  1  0  0  0  0
 31 32  1  0  0  0  0
 32 33  1  0  0  0  0
 33 34  1  0  0  0  0
 34 35  1  0  0  0  0
 35 36  2  0  0  0  0
 35 37  1  0  0  0  0
 37 38  1  0  0  0  0
 38 39  1  0  0  0  0
 38 40  1  0  0  0  0
 38 41  1  0  0  0  0
 34 42  1  0  0  0  0
 42 43  1  0  0  0  0
  7  2  1  0  0  0  0
 20 16  1  0  0  0  0
 29 22  1  0  0  0  0
 43 31  1  0  0  0  0
  1 44  1  0  0  0  0
  1 45  1  0  0  0  0
  1 46  1  0  0  0  0
  3 47  1  0  0  0  0
  4 48  1  0  0  0  0
  5 49  1  0  0  0  0
  6 50  1  0  0  0  0
 12 51  1  0  0  0  0
 12 52  1  0  0  0  0
 13 53  1  0  0  0  0
 13 54  1  0  0  0  0
 15 55  1  0  0  0  0
 15 56  1  0  0  0  0
 17 57  1  0  0  0  0
 19 58  1  0  0  0  0
 21 59  1  0  0  0  0
 21 60  1  0  0  0  0
 21 61  1  0  0  0  0
 23 62  1  0  0  0  0
 24 63  1  0  0  0  0
 28 64  1  0  0  0  0
 29 65  1  0  0  0  0
 30 66  1  0  0  0  0
 30 67  1  0  0  0  0
 31 68  1  0  0  0  0
 32 69  1  0  0  0  0
 32 70  1  0  0  0  0
 33 71  1  0  0  0  0
 33 72  1  0  0  0  0
 39 73  1  0  0  0  0
 39 74  1  0  0  0  0
 39 75  1  0  0  0  0
 40 76  1  0  0  0  0
 40 77  1  0  0  0  0
 40 78  1  0  0  0  0
 41 79  1  0  0  0  0
 41 80  1  0  0  0  0
 41 81  1  0  0  0  0
 42 82  1  0  0  0  0
 42 83  1  0  0  0  0
 43 84  1  0  0  0  0
 43 85  1  0  0  0  0
M  END
> <BIOSOLVEIT.HYDE_ESTIMATED_AFFINITY_LOWER_BOUNDARY [nM]>
133.896971

> <BIOSOLVEIT.HYDE_ESTIMATED_AFFINITY_UPPER_BOUNDARY [nM]>
13303.455744

> <BIOSOLVEIT.HYDE_LIGAND_EFFICIENCY range: ++, +, 0, -, -->
--

> <BIOSOLVEIT.HYDE_LIGAND_LIPOPHILIC_EFFICIENCY range: ++, +, 0, -, -->
--

> <BIOSOLVEIT.INTER_CLASH range: red, yellow, green>
green

> <BIOSOLVEIT.INTRA_CLASH range: red, yellow, green>
yellow

> <BIOSOLVEIT.LOGP>
5.5954

> <BIOSOLVEIT.MOLECULAR WEIGHT>
606.787

> <BIOSOLVEIT.MOLECULE_CHECKSUM>
LTMzLjUzMjU7MC43Nzk4MjU=

> <BIOSOLVEIT.TORSION_QUALITY range: red, yellow, green, not rotatable>
red

> <BIOSOLVEIT.TPSA>
111.77

$$$$
3E37_ED5_3
foHydescor03192112113D 1   1.00000     0.00000     0
Hydescorer 1.1.0 fol007
 85 88  0  0  0  0            999 V2000
   18.1285  136.6355   -4.3014 C   0  0  0  0  0  0  0  0  0  0  0  0
   17.1058  136.2862   -5.3703 C   0  0  0  0  0  0  0  0  0  0  0  0
   17.5381  135.5885   -6.4936 C   0  0  0  0  0  0  0  0  0  0  0  0
   16.6218  135.2572   -7.4858 C   0  0  0  0  0  0  0  0  0  0  0  0
   15.2868  135.6236   -7.3496 C   0  0  0  0  0  0  0  0  0  0  0  0
   14.8528  136.3214   -6.2272 C   0  0  0  0  0  0  0  0  0  0  0  0
   15.7699  136.6531   -5.2346 C   0  0  0  0  0  0  0  0  0  0  0  0
   15.1978  137.5438   -3.8090 S   0  0  0  0  0  0  0  0  0  0  0  0
   13.7847  137.9819   -4.0710 O   0  0  0  0  0  0  0  0  0  0  0  0
   16.0381  138.7762   -3.6122 O   0  0  0  0  0  0  0  0  0  0  0  0
   15.2465  136.5441   -2.3654 N   0  0  0  0  0  0  0  0  0  0  0  0
   15.3556  135.1028   -2.6752 C   0  0  0  0  0  0  0  0  0  0  0  0
   15.9122  134.2503   -1.5190 C   0  0  0  0  0  0  0  0  0  0  0  0
   16.9875  133.3797   -2.0078 N   0  0  0  0  0  0  0  0  0  0  0  0
   16.7009  132.0538   -2.5668 C   0  0  0  0  0  0  0  0  0  0  0  0
   16.3469  132.1705   -4.0413 C   0  0  0  0  0  0  0  0  0  0  0  0
   17.2263  132.0993   -5.0815 C   0  0  0  0  0  0  0  0  0  0  0  0
   16.5007  132.2487   -6.2261 N   0  0  0  0  0  0  0  0  0  0  0  0
   15.2344  132.4050   -5.9039 C   0  0  0  0  0  0  0  0  0  0  0  0
   15.1006  132.3551   -4.5512 N   0  0  0  0  0  0  0  0  0  0  0  0
   13.8519  132.4850   -3.7854 C   0  0  0  0  0  0  0  0  0  0  0  0
   18.3513  133.7682   -1.7892 C   0  0  0  0  0  0  0  0  0  0  0  0
   19.3616  133.1574   -2.5251 C   0  0  0  0  0  0  0  0  0  0  0  0
   20.6880  133.5241   -2.3230 C   0  0  0  0  0  0  0  0  0  0  0  0
   20.9851  134.5033   -1.3817 C   0  0  0  0  0  0  0  0  0  0  0  0
   22.4304  134.9143   -1.1520 C   0  0  0  0  0  0  0  0  0  0  0  0
   23.5308  135.2264   -0.9763 N   0  0  0  0  0  0  0  0  0  0  0  0
   19.9784  135.1174   -0.6436 C   0  0  0  0  0  0  0  0  0  0  0  0
   18.6531  134.7476   -0.8484 C   0  0  0  0  0  0  0  0  0  0  0  0
   16.2653  136.9973   -1.3947 C   0  0  0  0  0  0  0  0  0  0  0  0
   15.6128  137.6346   -0.1512 C   0  0  0  0  0  0  0  0  0  0  0  0
   14.1745  138.0430   -0.4367 C   0  0  0  0  0  0  0  0  0  0  0  0
   13.6931  138.7385    0.8251 C   0  0  0  0  0  0  0  0  0  0  0  0
   14.4346  140.0009    0.9593 N   0  0  0  0  0  0  0  0  0  0  0  0
   13.9117  141.0639    1.7057 C   0  0  0  0  0  0  0  0  0  0  0  0
   12.7187  141.0247    2.1130 O   0  0  0  0  0  0  0  0  0  0  0  0
   14.7287  142.1696    1.9947 O   0  0  0  0  0  0  0  0  0  0  0  0
   14.3222  143.3842    2.6422 C   0  0  0  0  0  0  0  0  0  0  0  0
   13.7312  143.0862    4.0335 C   0  0  0  0  0  0  0  0  0  0  0  0
   13.3069  144.1496    1.7723 C   0  0  0  0  0  0  0  0  0  0  0  0
   15.5803  144.2491    2.8130 C   0  0  0  0  0  0  0  0  0  0  0  0
   15.7433  140.1332    0.2984 C   0  0  0  0  0  0  0  0  0  0  0  0
   16.4463  138.7843    0.3960 C   0  0  0  0  0  0  0  0  0  0  0  0
   17.6786  137.1324   -3.5593 H   0  0  0  0  0  0  0  0  0  0  0  0
   18.5349  135.7955   -3.9417 H   0  0  0  0  0  0  0  0  0  0  0  0
   18.8448  137.2083   -4.6999 H   0  0  0  0  0  0  0  0  0  0  0  0
   18.4990  135.3277   -6.5868 H   0  0  0  0  0  0  0  0  0  0  0  0
   16.9224  134.7557   -8.2970 H   0  0  0  0  0  0  0  0  0  0  0  0
   14.6322  135.3827   -8.0661 H   0  0  0  0  0  0  0  0  0  0  0  0
   13.8917  136.5820   -6.1346 H   0  0  0  0  0  0  0  0  0  0  0  0
   15.9614  134.9962   -3.4636 H   0  0  0  0  0  0  0  0  0  0  0  0
   14.4446  134.7615   -2.9063 H   0  0  0  0  0  0  0  0  0  0  0  0
   15.1778  133.6878   -1.1393 H   0  0  0  0  0  0  0  0  0  0  0  0
   16.2724  134.8532   -0.8070 H   0  0  0  0  0  0  0  0  0  0  0  0
   15.9320  131.6467   -2.0737 H   0  0  0  0  0  0  0  0  0  0  0  0
   17.5075  131.4714   -2.4659 H   0  0  0  0  0  0  0  0  0  0  0  0
   18.2149  131.9633   -5.0169 H   0  0  0  0  0  0  0  0  0  0  0  0
   14.4860  132.5396   -6.5534 H   0  0  0  0  0  0  0  0  0  0  0  0
   14.0507  132.4091   -2.8083 H   0  0  0  0  0  0  0  0  0  0  0  0
   13.4369  133.3752   -3.9730 H   0  0  0  0  0  0  0  0  0  0  0  0
   13.2190  131.7588   -4.0541 H   0  0  0  0  0  0  0  0  0  0  0  0
   19.1343  132.4548   -3.1995 H   0  0  0  0  0  0  0  0  0  0  0  0
   21.4190  133.0886   -2.8483 H   0  0  0  0  0  0  0  0  0  0  0  0
   20.2062  135.8204    0.0302 H   0  0  0  0  0  0  0  0  0  0  0  0
   17.9221  135.1829   -0.3228 H   0  0  0  0  0  0  0  0  0  0  0  0
   16.8561  137.6734   -1.8349 H   0  0  0  0  0  0  0  0  0  0  0  0
   16.8138  136.2118   -1.1080 H   0  0  0  0  0  0  0  0  0  0  0  0
   15.5827  136.9303    0.5581 H   0  0  0  0  0  0  0  0  0  0  0  0
   13.6135  137.2374   -0.6276 H   0  0  0  0  0  0  0  0  0  0  0  0
   14.1367  138.6679   -1.2165 H   0  0  0  0  0  0  0  0  0  0  0  0
   13.8662  138.1571    1.6201 H   0  0  0  0  0  0  0  0  0  0  0  0
   12.7133  138.9261    0.7563 H   0  0  0  0  0  0  0  0  0  0  0  0
   13.4542  143.9429    4.4685 H   0  0  0  0  0  0  0  0  0  0  0  0
   12.9350  142.4889    3.9365 H   0  0  0  0  0  0  0  0  0  0  0  0
   14.4208  142.6331    4.5986 H   0  0  0  0  0  0  0  0  0  0  0  0
   13.0358  144.9914    2.2390 H   0  0  0  0  0  0  0  0  0  0  0  0
   13.7254  144.3761    0.8928 H   0  0  0  0  0  0  0  0  0  0  0  0
   12.5004  143.5782    1.6203 H   0  0  0  0  0  0  0  0  0  0  0  0
   15.3357  145.1081    3.2629 H   0  0  0  0  0  0  0  0  0  0  0  0
   16.2487  143.7585    3.3720 H   0  0  0  0  0  0  0  0  0  0  0  0
   15.9753  144.4439    1.9152 H   0  0  0  0  0  0  0  0  0  0  0  0
   16.2876  140.8355    0.7571 H   0  0  0  0  0  0  0  0  0  0  0  0
   15.6170  140.3834   -0.6615 H   0  0  0  0  0  0  0  0  0  0  0  0
   16.6495  138.6003    1.3576 H   0  0  0  0  0  0  0  0  0  0  0  0
   17.3005  138.8325   -0.1219 H   0  0  0  0  0  0  0  0  0  0  0  0
  1  2  1  0  0  0  0
  2  3  2  0  0  0  0
  3  4  1  0  0  0  0
  4  5  2  0  0  0  0
  5  6  1  0  0  0  0
  6  7  2  0  0  0  0
  7  8  1  0  0  0  0
  8  9  2  0  0  0  0
  8 10  2  0  0  0  0
  8 11  1  0  0  0  0
 11 12  1  0  0  0  0
 12 13  1  0  0  0  0
 13 14  1  0  0  0  0
 14 15  1  0  0  0  0
 15 16  1  0  0  0  0
 16 17  2  0  0  0  0
 17 18  1  0  0  0  0
 18 19  2  0  0  0  0
 19 20  1  0  0  0  0
 20 21  1  0  0  0  0
 14 22  1  0  0  0  0
 22 23  2  0  0  0  0
 23 24  1  0  0  0  0
 24 25  2  0  0  0  0
 25 26  1  0  0  0  0
 26 27  3  0  0  0  0
 25 28  1  0  0  0  0
 28 29  2  0  0  0  0
 11 30  1  0  0  0  0
 30 31  1  0  0  0  0
 31 32  1  0  0  0  0
 32 33  1  0  0  0  0
 33 34  1  0  0  0  0
 34 35  1  0  0  0  0
 35 36  2  0  0  0  0
 35 37  1  0  0  0  0
 37 38  1  0  0  0  0
 38 39  1  0  0  0  0
 38 40  1  0  0  0  0
 38 41  1  0  0  0  0
 34 42  1  0  0  0  0
 42 43  1  0  0  0  0
  7  2  1  0  0  0  0
 20 16  1  0  0  0  0
 29 22  1  0  0  0  0
 43 31  1  0  0  0  0
  1 44  1  0  0  0  0
  1 45  1  0  0  0  0
  1 46  1  0  0  0  0
  3 47  1  0  0  0  0
  4 48  1  0  0  0  0
  5 49  1  0  0  0  0
  6 50  1  0  0  0  0
 12 51  1  0  0  0  0
 12 52  1  0  0  0  0
 13 53  1  0  0  0  0
 13 54  1  0  0  0  0
 15 55  1  0  0  0  0
 15 56  1  0  0  0  0
 17 57  1  0  0  0  0
 19 58  1  0  0  0  0
 21 59  1  0  0  0  0
 21 60  1  0  0  0  0
 21 61  1  0  0  0  0
 23 62  1  0  0  0  0
 24 63  1  0  0  0  0
 28 64  1  0  0  0  0
 29 65  1  0  0  0  0
 30 66  1  0  0  0  0
 30 67  1  0  0  0  0
 31 68  1  0  0  0  0
 32 69  1  0  0  0  0
 32 70  1  0  0  0  0
 33 71  1  0  0  0  0
 33 72  1  0  0  0  0
 39 73  1  0  0  0  0
 39 74  1  0  0  0  0
 39 75  1  0  0  0  0
 40 76  1  0  0  0  0
 40 77  1  0  0  0  0
 40 78  1  0  0  0  0
 41 79  1  0  0  0  0
 41 80  1  0  0  0  0
 41 81  1  0  0  0  0
 42 82  1  0  0  0  0
 42 83  1  0  0  0  0
 43 84  1  0  0  0  0
 43 85  1  0  0  0  0
M  END
> <BIOSOLVEIT.HYDE_ESTIMATED_AFFINITY_LOWER_BOUNDARY [nM]>
33.397710

> <BIOSOLVEIT.HYDE_ESTIMATED_AFFINITY_UPPER_BOUNDARY [nM]>
3318.259936

> <BIOSOLVEIT.HYDE_LIGAND_EFFICIENCY range: ++, +, 0, -, -->
-

> <BIOSOLVEIT.HYDE_LIGAND_LIPOPHILIC_EFFICIENCY range: ++, +, 0, -, -->
--

> <BIOSOLVEIT.INTER_CLASH range: red, yellow, green>
green

> <BIOSOLVEIT.INTRA_CLASH range: red, yellow, green>
green

> <BIOSOLVEIT.LOGP>
5.5954

> <BIOSOLVEIT.MOLECULAR WEIGHT>
606.787

> <BIOSOLVEIT.MOLECULE_CHECKSUM>
LTM2Ljk3NDc7MC44NTk4Nzc=

> <BIOSOLVEIT.TORSION_QUALITY range: red, yellow, green, not rotatable>
red

> <BIOSOLVEIT.TPSA>
111.77

$$$$
2IEJ_S48_1
foHydescor03192112113D 1   1.00000     0.00000     0
Hydescorer 1.1.0 fol007
 69 73  0  0  0  0            999 V2000
   19.4909  138.5907   -8.0179 C   0  0  0  0  0  0  0  0  0  0  0  0
   20.3250  137.7343   -7.2476 O   0  0  0  0  0  0  0  0  0  0  0  0
   19.8449  136.9905   -6.1660 C   0  0  0  0  0  0  0  0  0  0  0  0
   18.7083  136.4449   -6.2142 O   0  0  0  0  0  0  0  0  0  0  0  0
   20.6737  136.8760   -4.9232 C   0  0  0  0  0  0  0  0  0  0  0  0
   20.5307  135.5294   -4.3194 N   0  0  0  0  0  0  0  0  0  0  0  0
   19.2448  135.3288   -3.6405 C   0  0  2  0  0  0  0  0  0  0  0  0
   18.9736  136.5080   -2.7159 C   0  0  0  0  0  0  0  0  0  0  0  0
   17.7438  136.2615   -1.8565 C   0  0  0  0  0  0  0  0  0  0  0  0
   17.1659  137.3688   -1.2681 C   0  0  0  0  0  0  0  0  0  0  0  0
   16.0525  137.1955   -0.4528 C   0  0  0  0  0  0  0  0  0  0  0  0
   15.4282  138.3477    0.1654 C   0  0  0  0  0  0  0  0  0  0  0  0
   15.9639  139.6131   -0.0492 C   0  0  0  0  0  0  0  0  0  0  0  0
   15.3600  140.7148    0.5476 C   0  0  0  0  0  0  0  0  0  0  0  0
   14.2351  140.5536    1.3483 C   0  0  0  0  0  0  0  0  0  0  0  0
   13.7063  139.2838    1.5576 C   0  0  0  0  0  0  0  0  0  0  0  0
   14.3030  138.1759    0.9652 C   0  0  0  0  0  0  0  0  0  0  0  0
   15.5392  135.9229   -0.2310 C   0  0  0  0  0  0  0  0  0  0  0  0
   16.1559  134.8385   -0.8504 C   0  0  0  0  0  0  0  0  0  0  0  0
   17.2655  134.9661   -1.6835 C   0  0  0  0  0  0  0  0  0  0  0  0
   17.8537  133.8778   -2.3399 N   0  0  0  0  0  0  0  0  0  0  0  0
   17.1420  132.6166   -2.6041 C   0  0  0  0  0  0  0  0  0  0  0  0
   16.6628  132.5452   -4.0457 C   0  0  0  0  0  0  0  0  0  0  0  0
   17.3911  132.0956   -5.1078 C   0  0  0  0  0  0  0  0  0  0  0  0
   16.5927  132.1971   -6.2083 N   0  0  0  0  0  0  0  0  0  0  0  0
   15.4285  132.6868   -5.8396 C   0  0  0  0  0  0  0  0  0  0  0  0
   15.4338  132.9097   -4.4978 N   0  0  0  0  0  0  0  0  0  0  0  0
   14.3290  133.4490   -3.6911 C   0  0  0  0  0  0  0  0  0  0  0  0
   19.2220  134.0394   -2.8293 C   0  0  0  0  0  0  0  0  0  0  0  0
   21.8870  135.2561   -3.2168 S   0  0  0  0  0  0  0  0  0  0  0  0
   23.2071  135.4879   -3.8987 O   0  0  0  0  0  0  0  0  0  0  0  0
   21.8598  133.8256   -2.7553 O   0  0  0  0  0  0  0  0  0  0  0  0
   21.8209  136.3184   -1.8147 C   0  0  0  0  0  0  0  0  0  0  0  0
   21.4707  135.9362   -0.5560 C   0  0  0  0  0  0  0  0  0  0  0  0
   21.5542  137.0606    0.2030 N   0  0  0  0  0  0  0  0  0  0  0  0
   21.2703  137.1511    1.6423 C   0  0  0  0  0  0  0  0  0  0  0  0
   21.9483  138.0898   -0.5956 C   0  0  0  0  0  0  0  0  0  0  0  0
   22.1133  137.6499   -1.8213 N   0  3  0  0  0  0  0  0  0  0  0  0
   20.0327  139.0242   -8.7381 H   0  0  0  0  0  0  0  0  0  0  0  0
   18.7546  138.0550   -8.4314 H   0  0  0  0  0  0  0  0  0  0  0  0
   19.0989  139.2949   -7.4260 H   0  0  0  0  0  0  0  0  0  0  0  0
   20.3732  137.5649   -4.2637 H   0  0  0  0  0  0  0  0  0  0  0  0
   21.6342  137.0319   -5.1538 H   0  0  0  0  0  0  0  0  0  0  0  0
   18.5209  135.2877   -4.3292 H   0  0  0  0  0  0  0  0  0  0  0  0
   18.8264  137.3285   -3.2683 H   0  0  0  0  0  0  0  0  0  0  0  0
   19.7654  136.6446   -2.1206 H   0  0  0  0  0  0  0  0  0  0  0  0
   17.5423  138.2817   -1.4257 H   0  0  0  0  0  0  0  0  0  0  0  0
   16.7730  139.7293   -0.6252 H   0  0  0  0  0  0  0  0  0  0  0  0
   15.7376  141.6289    0.3998 H   0  0  0  0  0  0  0  0  0  0  0  0
   13.8059  141.3503    1.7738 H   0  0  0  0  0  0  0  0  0  0  0  0
   12.8974  139.1678    2.1340 H   0  0  0  0  0  0  0  0  0  0  0  0
   13.9256  137.2617    1.1132 H   0  0  0  0  0  0  0  0  0  0  0  0
   14.7443  135.7888    0.3606 H   0  0  0  0  0  0  0  0  0  0  0  0
   15.7843  133.9241   -0.6895 H   0  0  0  0  0  0  0  0  0  0  0  0
   16.3517  132.5544   -1.9945 H   0  0  0  0  0  0  0  0  0  0  0  0
   17.7601  131.8505   -2.4278 H   0  0  0  0  0  0  0  0  0  0  0  0
   18.3314  131.7561   -5.0838 H   0  0  0  0  0  0  0  0  0  0  0  0
   14.6584  132.8674   -6.4514 H   0  0  0  0  0  0  0  0  0  0  0  0
   14.6122  133.5059   -2.7337 H   0  0  0  0  0  0  0  0  0  0  0  0
   14.0890  134.3615   -4.0224 H   0  0  0  0  0  0  0  0  0  0  0  0
   13.5346  132.8466   -3.7686 H   0  0  0  0  0  0  0  0  0  0  0  0
   19.4756  133.2637   -3.4072 H   0  0  0  0  0  0  0  0  0  0  0  0
   19.8581  134.1042   -2.0605 H   0  0  0  0  0  0  0  0  0  0  0  0
   21.2073  135.0203   -0.2532 H   0  0  0  0  0  0  0  0  0  0  0  0
   21.4091  138.0921    1.9509 H   0  0  0  0  0  0  0  0  0  0  0  0
   20.3228  136.8807    1.8129 H   0  0  0  0  0  0  0  0  0  0  0  0
   21.8859  136.5421    2.1424 H   0  0  0  0  0  0  0  0  0  0  0  0
   22.0898  139.0333   -0.2957 H   0  0  0  0  0  0  0  0  0  0  0  0
   22.3998  138.1906   -2.6121 H   0  0  0  0  0  0  0  0  0  0  0  0
  1  2  1  0  0  0  0
  2  3  1  0  0  0  0
  3  4  2  0  0  0  0
  3  5  1  0  0  0  0
  5  6  1  0  0  0  0
  6  7  1  0  0  0  0
  7  8  1  0  0  0  0
  8  9  1  0  0  0  0
  9 10  2  0  0  0  0
 10 11  1  0  0  0  0
 11 12  1  0  0  0  0
 12 13  2  0  0  0  0
 13 14  1  0  0  0  0
 14 15  2  0  0  0  0
 15 16  1  0  0  0  0
 16 17  2  0  0  0  0
 11 18  2  0  0  0  0
 18 19  1  0  0  0  0
 19 20  2  0  0  0  0
 20 21  1  0  0  0  0
 21 22  1  0  0  0  0
 22 23  1  0  0  0  0
 23 24  2  0  0  0  0
 24 25  1  0  0  0  0
 25 26  2  0  0  0  0
 26 27  1  0  0  0  0
 27 28  1  0  0  0  0
 21 29  1  0  0  0  0
  6 30  1  0  0  0  0
 30 31  2  0  0  0  0
 30 32  2  0  0  0  0
 30 33  1  0  0  0  0
 33 34  2  0  0  0  0
 34 35  1  0  0  0  0
 35 36  1  0  0  0  0
 35 37  1  0  0  0  0
 37 38  2  0  0  0  0
 29  7  1  0  0  0  0
 38 33  1  0  0  0  0
 20  9  1  0  0  0  0
 27 23  1  0  0  0  0
 17 12  1  0  0  0  0
  1 39  1  0  0  0  0
  1 40  1  0  0  0  0
  1 41  1  0  0  0  0
  5 42  1  0  0  0  0
  5 43  1  0  0  0  0
  7 44  1  0  0  0  0
  8 45  1  0  0  0  0
  8 46  1  0  0  0  0
 10 47  1  0  0  0  0
 13 48  1  0  0  0  0
 14 49  1  0  0  0  0
 15 50  1  0  0  0  0
 16 51  1  0  0  0  0
 17 52  1  0  0  0  0
 18 53  1  0  0  0  0
 19 54  1  0  0  0  0
 22 55  1  0  0  0  0
 22 56  1  0  0  0  0
 24 57  1  0  0  0  0
 26 58  1  0  0  0  0
 28 59  1  0  0  0  0
 28 60  1  0  0  0  0
 28 61  1  0  0  0  0
 29 62  1  0  0  0  0
 29 63  1  0  0  0  0
 34 64  1  0  0  0  0
 36 65  1  0  0  0  0
 36 66  1  0  0  0  0
 36 67  1  0  0  0  0
 37 68  1  0  0  0  0
 38 69  1  0  0  0  0
M  CHG  1  38   1
M  END
> <BIOSOLVEIT.HYDE_ESTIMATED_AFFINITY_LOWER_BOUNDARY [nM]>
221.028002

> <BIOSOLVEIT.HYDE_ESTIMATED_AFFINITY_UPPER_BOUNDARY [nM]>
21960.438829

> <BIOSOLVEIT.HYDE_LIGAND_EFFICIENCY range: ++, +, 0, -, -->
-

> <BIOSOLVEIT.HYDE_LIGAND_LIPOPHILIC_EFFICIENCY range: ++, +, 0, -, -->
-

> <BIOSOLVEIT.INTER_CLASH range: red, yellow, green>
green

> <BIOSOLVEIT.INTRA_CLASH range: red, yellow, green>
red

> <BIOSOLVEIT.LOGP>
2.6855

> <BIOSOLVEIT.MOLECULAR WEIGHT>
535.645

> <BIOSOLVEIT.MOLECULE_CHECKSUM>
LTMyLjI5OzAuODQ5NzM2

> <BIOSOLVEIT.TORSION_QUALITY range: red, yellow, green, not rotatable>
red

> <BIOSOLVEIT.TPSA>
103.81

$$$$
2IEJ_S48_2
foHydescor03192112113D 1   1.00000     0.00000     0
Hydescorer 1.1.0 fol007
 69 73  0  0  0  0            999 V2000
   19.4861  138.5668   -8.0163 C   0  0  0  0  0  0  0  0  0  0  0  0
   20.3188  137.7168   -7.2376 O   0  0  0  0  0  0  0  0  0  0  0  0
   19.8362  136.9793   -6.1528 C   0  0  0  0  0  0  0  0  0  0  0  0
   18.7003  136.4321   -6.2012 O   0  0  0  0  0  0  0  0  0  0  0  0
   20.6611  136.8739   -4.9066 C   0  0  0  0  0  0  0  0  0  0  0  0
   20.5424  135.5209   -4.3118 N   0  0  0  0  0  0  0  0  0  0  0  0
   19.2625  135.2946   -3.6295 C   0  0  2  0  0  0  0  0  0  0  0  0
   18.9748  136.4637   -2.6973 C   0  0  0  0  0  0  0  0  0  0  0  0
   17.7525  136.1914   -1.8348 C   0  0  0  0  0  0  0  0  0  0  0  0
   17.1580  137.2854   -1.2380 C   0  0  0  0  0  0  0  0  0  0  0  0
   16.0508  137.0886   -0.4197 C   0  0  0  0  0  0  0  0  0  0  0  0
   15.4093  138.2265    0.2073 C   0  0  0  0  0  0  0  0  0  0  0  0
   14.0733  138.1372    0.5829 C   0  0  0  0  0  0  0  0  0  0  0  0
   13.4634  139.2333    1.1839 C   0  0  0  0  0  0  0  0  0  0  0  0
   14.1801  140.4037    1.4066 C   0  0  0  0  0  0  0  0  0  0  0  0
   15.5163  140.4839    1.0272 C   0  0  0  0  0  0  0  0  0  0  0  0
   16.1349  139.3931    0.4255 C   0  0  0  0  0  0  0  0  0  0  0  0
   15.5600  135.8062   -0.2034 C   0  0  0  0  0  0  0  0  0  0  0  0
   16.1928  134.7360   -0.8312 C   0  0  0  0  0  0  0  0  0  0  0  0
   17.2969  134.8871   -1.6674 C   0  0  0  0  0  0  0  0  0  0  0  0
   17.9012  133.8128   -2.3321 N   0  0  0  0  0  0  0  0  0  0  0  0
   17.2100  132.5412   -2.6010 C   0  0  0  0  0  0  0  0  0  0  0  0
   16.7047  132.4804   -4.0341 C   0  0  0  0  0  0  0  0  0  0  0  0
   17.4240  132.0691   -5.1176 C   0  0  0  0  0  0  0  0  0  0  0  0
   16.6016  132.1665   -6.2007 N   0  0  0  0  0  0  0  0  0  0  0  0
   15.4316  132.6169   -5.8012 C   0  0  0  0  0  0  0  0  0  0  0  0
   15.4573  132.8175   -4.4560 N   0  0  0  0  0  0  0  0  0  0  0  0
   14.3540  133.3120   -3.6190 C   0  0  0  0  0  0  0  0  0  0  0  0
   19.2648  134.0005   -2.8256 C   0  0  0  0  0  0  0  0  0  0  0  0
   21.9073  135.2621   -3.2164 S   0  0  0  0  0  0  0  0  0  0  0  0
   23.2212  135.5071   -3.9053 O   0  0  0  0  0  0  0  0  0  0  0  0
   21.8973  133.8315   -2.7543 O   0  0  0  0  0  0  0  0  0  0  0  0
   21.8377  136.3241   -1.8143 C   0  0  0  0  0  0  0  0  0  0  0  0
   21.4969  135.9391   -0.5539 C   0  0  0  0  0  0  0  0  0  0  0  0
   21.5734  137.0644    0.2044 N   0  0  0  0  0  0  0  0  0  0  0  0
   21.2954  137.1527    1.6450 C   0  0  0  0  0  0  0  0  0  0  0  0
   21.9541  138.0971   -0.5963 C   0  0  0  0  0  0  0  0  0  0  0  0
   22.1174  137.6584   -1.8226 N   0  3  0  0  0  0  0  0  0  0  0  0
   20.0296  138.9965   -8.7374 H   0  0  0  0  0  0  0  0  0  0  0  0
   18.7520  138.0274   -8.4288 H   0  0  0  0  0  0  0  0  0  0  0  0
   19.0910  139.2743   -7.4304 H   0  0  0  0  0  0  0  0  0  0  0  0
   20.3435  137.5525   -4.2444 H   0  0  0  0  0  0  0  0  0  0  0  0
   21.6194  137.0506   -5.1316 H   0  0  0  0  0  0  0  0  0  0  0  0
   18.5370  135.2450   -4.3159 H   0  0  0  0  0  0  0  0  0  0  0  0
   18.8116  137.2846   -3.2444 H   0  0  0  0  0  0  0  0  0  0  0  0
   19.7664  136.6103   -2.1041 H   0  0  0  0  0  0  0  0  0  0  0  0
   17.5183  138.2055   -1.3918 H   0  0  0  0  0  0  0  0  0  0  0  0
   13.5576  137.2955    0.4230 H   0  0  0  0  0  0  0  0  0  0  0  0
   12.5031  139.1793    1.4575 H   0  0  0  0  0  0  0  0  0  0  0  0
   13.7352  141.1877    1.8395 H   0  0  0  0  0  0  0  0  0  0  0  0
   16.0318  141.3258    1.1870 H   0  0  0  0  0  0  0  0  0  0  0  0
   17.0952  139.4472    0.1517 H   0  0  0  0  0  0  0  0  0  0  0  0
   14.7696  135.6552    0.3902 H   0  0  0  0  0  0  0  0  0  0  0  0
   15.8374  133.8145   -0.6742 H   0  0  0  0  0  0  0  0  0  0  0  0
   16.4331  132.4543   -1.9774 H   0  0  0  0  0  0  0  0  0  0  0  0
   17.8467  131.7854   -2.4476 H   0  0  0  0  0  0  0  0  0  0  0  0
   18.3737  131.7559   -5.1176 H   0  0  0  0  0  0  0  0  0  0  0  0
   14.6449  132.7858   -6.3949 H   0  0  0  0  0  0  0  0  0  0  0  0
   14.6543  133.3608   -2.6664 H   0  0  0  0  0  0  0  0  0  0  0  0
   14.0820  134.2227   -3.9298 H   0  0  0  0  0  0  0  0  0  0  0  0
   13.5754  132.6887   -3.6915 H   0  0  0  0  0  0  0  0  0  0  0  0
   19.5295  133.2324   -3.4088 H   0  0  0  0  0  0  0  0  0  0  0  0
   19.9025  134.0718   -2.0586 H   0  0  0  0  0  0  0  0  0  0  0  0
   21.2434  135.0208   -0.2497 H   0  0  0  0  0  0  0  0  0  0  0  0
   21.4268  138.0951    1.9527 H   0  0  0  0  0  0  0  0  0  0  0  0
   20.3513  136.8735    1.8200 H   0  0  0  0  0  0  0  0  0  0  0  0
   21.9190  136.5496    2.1424 H   0  0  0  0  0  0  0  0  0  0  0  0
   22.0883  139.0419   -0.2972 H   0  0  0  0  0  0  0  0  0  0  0  0
   22.3952  138.2015   -2.6150 H   0  0  0  0  0  0  0  0  0  0  0  0
  1  2  1  0  0  0  0
  2  3  1  0  0  0  0
  3  4  2  0  0  0  0
  3  5  1  0  0  0  0
  5  6  1  0  0  0  0
  6  7  1  0  0  0  0
  7  8  1  0  0  0  0
  8  9  1  0  0  0  0
  9 10  2  0  0  0  0
 10 11  1  0  0  0  0
 11 12  1  0  0  0  0
 12 13  2  0  0  0  0
 13 14  1  0  0  0  0
 14 15  2  0  0  0  0
 15 16  1  0  0  0  0
 16 17  2  0  0  0  0
 11 18  2  0  0  0  0
 18 19  1  0  0  0  0
 19 20  2  0  0  0  0
 20 21  1  0  0  0  0
 21 22  1  0  0  0  0
 22 23  1  0  0  0  0
 23 24  2  0  0  0  0
 24 25  1  0  0  0  0
 25 26  2  0  0  0  0
 26 27  1  0  0  0  0
 27 28  1  0  0  0  0
 21 29  1  0  0  0  0
  6 30  1  0  0  0  0
 30 31  2  0  0  0  0
 30 32  2  0  0  0  0
 30 33  1  0  0  0  0
 33 34  2  0  0  0  0
 34 35  1  0  0  0  0
 35 36  1  0  0  0  0
 35 37  1  0  0  0  0
 37 38  2  0  0  0  0
 29  7  1  0  0  0  0
 38 33  1  0  0  0  0
 20  9  1  0  0  0  0
 27 23  1  0  0  0  0
 17 12  1  0  0  0  0
  1 39  1  0  0  0  0
  1 40  1  0  0  0  0
  1 41  1  0  0  0  0
  5 42  1  0  0  0  0
  5 43  1  0  0  0  0
  7 44  1  0  0  0  0
  8 45  1  0  0  0  0
  8 46  1  0  0  0  0
 10 47  1  0  0  0  0
 13 48  1  0  0  0  0
 14 49  1  0  0  0  0
 15 50  1  0  0  0  0
 16 51  1  0  0  0  0
 17 52  1  0  0  0  0
 18 53  1  0  0  0  0
 19 54  1  0  0  0  0
 22 55  1  0  0  0  0
 22 56  1  0  0  0  0
 24 57  1  0  0  0  0
 26 58  1  0  0  0  0
 28 59  1  0  0  0  0
 28 60  1  0  0  0  0
 28 61  1  0  0  0  0
 29 62  1  0  0  0  0
 29 63  1  0  0  0  0
 34 64  1  0  0  0  0
 36 65  1  0  0  0  0
 36 66  1  0  0  0  0
 36 67  1  0  0  0  0
 37 68  1  0  0  0  0
 38 69  1  0  0  0  0
M  CHG  1  38   1
M  END
> <BIOSOLVEIT.HYDE_ESTIMATED_AFFINITY_LOWER_BOUNDARY [nM]>
109.865747

> <BIOSOLVEIT.HYDE_ESTIMATED_AFFINITY_UPPER_BOUNDARY [nM]>
10915.811584

> <BIOSOLVEIT.HYDE_LIGAND_EFFICIENCY range: ++, +, 0, -, -->
-

> <BIOSOLVEIT.HYDE_LIGAND_LIPOPHILIC_EFFICIENCY range: ++, +, 0, -, -->
-

> <BIOSOLVEIT.INTER_CLASH range: red, yellow, green>
green

> <BIOSOLVEIT.INTRA_CLASH range: red, yellow, green>
red

> <BIOSOLVEIT.LOGP>
2.6855

> <BIOSOLVEIT.MOLECULAR WEIGHT>
535.645

> <BIOSOLVEIT.MOLECULE_CHECKSUM>
LTM0LjAyMjg7MC44OTUzMzc=

> <BIOSOLVEIT.TORSION_QUALITY range: red, yellow, green, not rotatable>
yellow

> <BIOSOLVEIT.TPSA>
103.81

$$$$
2IEJ_S48_3
foHydescor03192112113D 1   1.00000     0.00000     0
Hydescorer 1.1.0 fol007
 68 72  0  0  0  0            999 V2000
   17.7120  136.3120   -6.8131 C   0  0  0  0  0  0  0  0  0  0  0  0
   18.4875  137.1232   -5.9397 O   0  0  0  0  0  0  0  0  0  0  0  0
   19.8830  137.1731   -6.0004 C   0  0  0  0  0  0  0  0  0  0  0  0
   20.4710  137.4317   -7.0864 O   0  0  0  0  0  0  0  0  0  0  0  0
   20.6862  136.8760   -4.7711 C   0  0  0  0  0  0  0  0  0  0  0  0
   20.4436  135.4883   -4.3086 N   0  0  0  0  0  0  0  0  0  0  0  0
   19.1465  135.3140   -3.6438 C   0  0  2  0  0  0  0  0  0  0  0  0
   18.8946  136.4924   -2.7131 C   0  0  0  0  0  0  0  0  0  0  0  0
   17.6507  136.2696   -1.8678 C   0  0  0  0  0  0  0  0  0  0  0  0
   17.0938  137.3862   -1.2766 C   0  0  0  0  0  0  0  0  0  0  0  0
   15.9684  137.2339   -0.4736 C   0  0  0  0  0  0  0  0  0  0  0  0
   15.3660  138.3963    0.1471 C   0  0  0  0  0  0  0  0  0  0  0  0
   15.9339  139.6500   -0.0530 C   0  0  0  0  0  0  0  0  0  0  0  0
   15.3510  140.7615    0.5461 C   0  0  0  0  0  0  0  0  0  0  0  0
   14.2147  140.6217    1.3350 C   0  0  0  0  0  0  0  0  0  0  0  0
   13.6538  139.3635    1.5299 C   0  0  0  0  0  0  0  0  0  0  0  0
   14.2294  138.2459    0.9350 C   0  0  0  0  0  0  0  0  0  0  0  0
   15.4224  135.9726   -0.2667 C   0  0  0  0  0  0  0  0  0  0  0  0
   16.0189  134.8781   -0.8882 C   0  0  0  0  0  0  0  0  0  0  0  0
   17.1395  134.9848   -1.7092 C   0  0  0  0  0  0  0  0  0  0  0  0
   17.7078  133.8876   -2.3681 N   0  0  0  0  0  0  0  0  0  0  0  0
   16.9686  132.6461   -2.6489 C   0  0  0  0  0  0  0  0  0  0  0  0
   16.5234  132.5857   -4.1020 C   0  0  0  0  0  0  0  0  0  0  0  0
   17.2662  132.1174   -5.1457 C   0  0  0  0  0  0  0  0  0  0  0  0
   16.4979  132.2381   -6.2656 N   0  0  0  0  0  0  0  0  0  0  0  0
   15.3374  132.7569   -5.9256 C   0  0  0  0  0  0  0  0  0  0  0  0
   15.3153  132.9803   -4.5840 N   0  0  0  0  0  0  0  0  0  0  0  0
   14.2047  133.5474   -3.8048 C   0  0  0  0  0  0  0  0  0  0  0  0
   19.0845  134.0196   -2.8428 C   0  0  0  0  0  0  0  0  0  0  0  0
   21.7761  135.0029   -3.2508 S   0  0  0  0  0  0  0  0  0  0  0  0
   23.1092  135.3826   -3.8338 O   0  0  0  0  0  0  0  0  0  0  0  0
   21.7575  133.5074   -3.0979 O   0  0  0  0  0  0  0  0  0  0  0  0
   21.6609  135.7492   -1.6607 C   0  0  0  0  0  0  0  0  0  0  0  0
   22.2076  136.9466   -1.3139 C   0  0  0  0  0  0  0  0  0  0  0  0
   21.8783  137.1334   -0.0086 N   0  0  0  0  0  0  0  0  0  0  0  0
   22.2451  138.2948    0.8142 C   0  0  0  0  0  0  0  0  0  0  0  0
   21.1482  136.0631    0.4078 C   0  0  0  0  0  0  0  0  0  0  0  0
   21.0103  135.2179   -0.5869 N   0  0  0  0  0  0  0  0  0  0  0  0
   16.7417  136.4254   -6.5996 H   0  0  0  0  0  0  0  0  0  0  0  0
   17.8793  136.5871   -7.7599 H   0  0  0  0  0  0  0  0  0  0  0  0
   17.9697  135.3532   -6.6942 H   0  0  0  0  0  0  0  0  0  0  0  0
   20.4251  137.5138   -4.0465 H   0  0  0  0  0  0  0  0  0  0  0  0
   21.6579  136.9875   -4.9791 H   0  0  0  0  0  0  0  0  0  0  0  0
   18.4288  135.2955   -4.3400 H   0  0  0  0  0  0  0  0  0  0  0  0
   18.7728  137.3203   -3.2607 H   0  0  0  0  0  0  0  0  0  0  0  0
   19.6836  136.6054   -2.1091 H   0  0  0  0  0  0  0  0  0  0  0  0
   17.4937  138.2908   -1.4236 H   0  0  0  0  0  0  0  0  0  0  0  0
   16.7510  139.7509   -0.6205 H   0  0  0  0  0  0  0  0  0  0  0  0
   15.7518  141.6673    0.4086 H   0  0  0  0  0  0  0  0  0  0  0  0
   13.8006  141.4254    1.7623 H   0  0  0  0  0  0  0  0  0  0  0  0
   12.8368  139.2627    2.0978 H   0  0  0  0  0  0  0  0  0  0  0  0
   13.8289  137.3400    1.0726 H   0  0  0  0  0  0  0  0  0  0  0  0
   14.6185  135.8534    0.3160 H   0  0  0  0  0  0  0  0  0  0  0  0
   15.6238  133.9719   -0.7379 H   0  0  0  0  0  0  0  0  0  0  0  0
   16.1620  132.6065   -2.0591 H   0  0  0  0  0  0  0  0  0  0  0  0
   17.5608  131.8636   -2.4567 H   0  0  0  0  0  0  0  0  0  0  0  0
   18.1969  131.7547   -5.0985 H   0  0  0  0  0  0  0  0  0  0  0  0
   14.5873  132.9561   -6.5562 H   0  0  0  0  0  0  0  0  0  0  0  0
   14.4655  133.5977   -2.8407 H   0  0  0  0  0  0  0  0  0  0  0  0
   13.9956  134.4653   -4.1419 H   0  0  0  0  0  0  0  0  0  0  0  0
   13.3977  132.9649   -3.9019 H   0  0  0  0  0  0  0  0  0  0  0  0
   19.3250  133.2422   -3.4241 H   0  0  0  0  0  0  0  0  0  0  0  0
   19.7143  134.0633   -2.0673 H   0  0  0  0  0  0  0  0  0  0  0  0
   22.7398  137.5602   -1.8973 H   0  0  0  0  0  0  0  0  0  0  0  0
   21.8764  138.1795    1.7366 H   0  0  0  0  0  0  0  0  0  0  0  0
   23.2412  138.3693    0.8603 H   0  0  0  0  0  0  0  0  0  0  0  0
   21.8673  139.1255    0.4055 H   0  0  0  0  0  0  0  0  0  0  0  0
   20.7753  135.9398    1.3275 H   0  0  0  0  0  0  0  0  0  0  0  0
  1  2  1  0  0  0  0
  2  3  1  0  0  0  0
  3  4  2  0  0  0  0
  3  5  1  0  0  0  0
  5  6  1  0  0  0  0
  6  7  1  0  0  0  0
  7  8  1  0  0  0  0
  8  9  1  0  0  0  0
  9 10  2  0  0  0  0
 10 11  1  0  0  0  0
 11 12  1  0  0  0  0
 12 13  2  0  0  0  0
 13 14  1  0  0  0  0
 14 15  2  0  0  0  0
 15 16  1  0  0  0  0
 16 17  2  0  0  0  0
 11 18  2  0  0  0  0
 18 19  1  0  0  0  0
 19 20  2  0  0  0  0
 20 21  1  0  0  0  0
 21 22  1  0  0  0  0
 22 23  1  0  0  0  0
 23 24  2  0  0  0  0
 24 25  1  0  0  0  0
 25 26  2  0  0  0  0
 26 27  1  0  0  0  0
 27 28  1  0  0  0  0
 21 29  1  0  0  0  0
  6 30  1  0  0  0  0
 30 31  2  0  0  0  0
 30 32  2  0  0  0  0
 30 33  1  0  0  0  0
 33 34  2  0  0  0  0
 34 35  1  0  0  0  0
 35 36  1  0  0  0  0
 35 37  1  0  0  0  0
 37 38  2  0  0  0  0
 29  7  1  0  0  0  0
 38 33  1  0  0  0  0
 20  9  1  0  0  0  0
 27 23  1  0  0  0  0
 17 12  1  0  0  0  0
  1 39  1  0  0  0  0
  1 40  1  0  0  0  0
  1 41  1  0  0  0  0
  5 42  1  0  0  0  0
  5 43  1  0  0  0  0
  7 44  1  0  0  0  0
  8 45  1  0  0  0  0
  8 46  1  0  0  0  0
 10 47  1  0  0  0  0
 13 48  1  0  0  0  0
 14 49  1  0  0  0  0
 15 50  1  0  0  0  0
 16 51  1  0  0  0  0
 17 52  1  0  0  0  0
 18 53  1  0  0  0  0
 19 54  1  0  0  0  0
 22 55  1  0  0  0  0
 22 56  1  0  0  0  0
 24 57  1  0  0  0  0
 26 58  1  0  0  0  0
 28 59  1  0  0  0  0
 28 60  1  0  0  0  0
 28 61  1  0  0  0  0
 29 62  1  0  0  0  0
 29 63  1  0  0  0  0
 34 64  1  0  0  0  0
 36 65  1  0  0  0  0
 36 66  1  0  0  0  0
 36 67  1  0  0  0  0
 37 68  1  0  0  0  0
M  END
> <BIOSOLVEIT.HYDE_ESTIMATED_AFFINITY_LOWER_BOUNDARY [nM]>
11985.129726

> <BIOSOLVEIT.HYDE_ESTIMATED_AFFINITY_UPPER_BOUNDARY [nM]>
1190793.500019

> <BIOSOLVEIT.HYDE_LIGAND_EFFICIENCY range: ++, +, 0, -, -->
--

> <BIOSOLVEIT.HYDE_LIGAND_LIPOPHILIC_EFFICIENCY range: ++, +, 0, -, -->
--

> <BIOSOLVEIT.INTER_CLASH range: red, yellow, green>
green

> <BIOSOLVEIT.INTRA_CLASH range: red, yellow, green>
red

> <BIOSOLVEIT.LOGP>
3.2664

> <BIOSOLVEIT.MOLECULAR WEIGHT>
534.637

> <BIOSOLVEIT.MOLECULE_CHECKSUM>
LTIyLjM5MTI7MC41ODkyNDE=

> <BIOSOLVEIT.TORSION_QUALITY range: red, yellow, green, not rotatable>
red

> <BIOSOLVEIT.TPSA>
102.56

$$$$
