1JCQ_739_1
foHydescor03192112153D 1   1.00000     0.00000     0
Hydescorer 1.1.0 fol007
 73 73  0  0  0  0            999 V2000
   10.6991  -68.5953   -3.8288 C   0  0  0  0  0  0  0  0  0  0  0  0
   12.1342  -69.0126   -3.4853 C   0  0  0  0  0  0  0  0  0  0  0  0
   12.5384  -68.9408   -1.9827 C   0  0  2  0  0  0  0  0  0  0  0  0
   11.4652  -68.2533   -1.1184 C   0  0  0  0  0  0  0  0  0  0  0  0
   13.9820  -68.4086   -1.6664 C   0  0  1  0  0  0  0  0  0  0  0  0
   14.5251  -68.9587   -0.3154 C   0  0  0  0  0  0  0  0  0  0  0  0
   14.2069  -70.3293   -0.1355 O   0  0  0  0  0  0  0  0  0  0  0  0
   14.7795  -70.8572    1.0478 C   0  0  2  0  0  0  0  0  0  0  0  0
   14.2417  -72.2816    1.2509 C   0  0  0  0  0  0  0  0  0  0  0  0
   14.4918  -72.7859    2.6501 C   0  0  0  0  0  0  0  0  0  0  0  0
   13.4261  -72.9019    3.5360 C   0  0  0  0  0  0  0  0  0  0  0  0
   13.6638  -73.3673    4.8250 C   0  0  0  0  0  0  0  0  0  0  0  0
   14.9504  -73.7122    5.2231 C   0  0  0  0  0  0  0  0  0  0  0  0
   16.0106  -73.5925    4.3301 C   0  0  0  0  0  0  0  0  0  0  0  0
   15.7829  -73.1281    3.0389 C   0  0  0  0  0  0  0  0  0  0  0  0
   14.4253  -69.9817    2.2233 C   0  0  0  0  0  0  0  0  0  0  0  0
   13.2804  -69.4555    2.2843 O   0  0  0  0  0  0  0  0  0  0  0  0
   15.3862  -69.7500    3.2639 N   0  0  0  0  0  0  0  0  0  0  0  0
   15.0916  -68.9063    4.4279 C   0  0  1  0  0  0  0  0  0  0  0  0
   13.7787  -69.3406    5.1063 C   0  0  0  0  0  0  0  0  0  0  0  0
   13.0431  -68.1936    5.8133 C   0  0  0  0  0  0  0  0  0  0  0  0
   12.7003  -66.8667    4.6690 S   0  0  0  0  0  0  0  0  0  0  0  0
   11.3040  -67.3054    3.6591 C   0  0  0  0  0  0  0  0  0  0  0  0
   12.3821  -65.6112    5.4315 O   0  0  0  0  0  0  0  0  0  0  0  0
   13.8954  -66.6257    3.7905 O   0  0  0  0  0  0  0  0  0  0  0  0
   16.2438  -68.8909    5.3989 C   0  0  0  0  0  0  0  0  0  0  0  0
   16.3095  -68.0284    6.3152 O   0  0  0  0  0  0  0  0  0  0  0  0
   17.2774  -69.8074    5.2521 O   0  5  0  0  0  0  0  0  0  0  0  0
   14.9362  -68.6144   -2.7854 N   0  3  0  0  0  0  0  0  0  0  0  0
   16.3282  -68.2191   -2.4534 C   0  0  0  0  0  0  0  0  0  0  0  0
   17.2863  -69.4301   -2.2974 C   0  0  1  0  0  0  0  0  0  0  0  0
   17.6674  -69.9721   -3.6108 N   0  0  0  0  0  0  0  0  0  0  0  0
   18.5384  -69.0031   -1.5018 C   0  0  0  0  0  0  0  0  0  0  0  0
   19.1594  -67.4241   -2.0534 S   0  0  0  0  0  0  0  0  0  0  0  0
   10.5539  -68.6810   -4.8145 H   0  0  0  0  0  0  0  0  0  0  0  0
   10.0549  -69.1869   -3.3442 H   0  0  0  0  0  0  0  0  0  0  0  0
   10.5527  -67.6456   -3.5517 H   0  0  0  0  0  0  0  0  0  0  0  0
   12.7542  -68.4165   -3.9954 H   0  0  0  0  0  0  0  0  0  0  0  0
   12.2563  -69.9578   -3.7878 H   0  0  0  0  0  0  0  0  0  0  0  0
   12.5438  -69.8920   -1.6741 H   0  0  0  0  0  0  0  0  0  0  0  0
   11.7684  -68.2310   -0.1658 H   0  0  0  0  0  0  0  0  0  0  0  0
   11.3227  -67.3189   -1.4448 H   0  0  0  0  0  0  0  0  0  0  0  0
   10.6076  -68.7636   -1.1835 H   0  0  0  0  0  0  0  0  0  0  0  0
   13.8959  -67.4190   -1.5510 H   0  0  0  0  0  0  0  0  0  0  0  0
   14.1221  -68.4323    0.4333 H   0  0  0  0  0  0  0  0  0  0  0  0
   15.5194  -68.8530   -0.2996 H   0  0  0  0  0  0  0  0  0  0  0  0
   15.7739  -70.8903    0.9477 H   0  0  0  0  0  0  0  0  0  0  0  0
   14.6940  -72.8931    0.6018 H   0  0  0  0  0  0  0  0  0  0  0  0
   13.2566  -72.2824    1.0787 H   0  0  0  0  0  0  0  0  0  0  0  0
   12.5006  -72.6539    3.2498 H   0  0  0  0  0  0  0  0  0  0  0  0
   12.9042  -73.4543    5.4696 H   0  0  0  0  0  0  0  0  0  0  0  0
   15.1138  -74.0463    6.1514 H   0  0  0  0  0  0  0  0  0  0  0  0
   16.9361  -73.8403    4.6165 H   0  0  0  0  0  0  0  0  0  0  0  0
   16.5425  -73.0408    2.3943 H   0  0  0  0  0  0  0  0  0  0  0  0
   16.2871  -70.1782    3.1933 H   0  0  0  0  0  0  0  0  0  0  0  0
   14.9643  -67.9712    4.0972 H   0  0  0  0  0  0  0  0  0  0  0  0
   13.9909  -70.0450    5.7836 H   0  0  0  0  0  0  0  0  0  0  0  0
   13.1730  -69.7214    4.4078 H   0  0  0  0  0  0  0  0  0  0  0  0
   13.6138  -67.8465    6.5575 H   0  0  0  0  0  0  0  0  0  0  0  0
   12.1811  -68.5367    6.1865 H   0  0  0  0  0  0  0  0  0  0  0  0
   11.1104  -66.5633    3.0174 H   0  0  0  0  0  0  0  0  0  0  0  0
   11.5102  -68.1410    3.1500 H   0  0  0  0  0  0  0  0  0  0  0  0
   10.5060  -67.4586    4.2420 H   0  0  0  0  0  0  0  0  0  0  0  0
   14.6302  -68.0710   -3.5670 H   0  0  0  0  0  0  0  0  0  0  0  0
   14.9321  -69.5838   -3.0313 H   0  0  0  0  0  0  0  0  0  0  0  0
   16.3173  -67.7094   -1.5931 H   0  0  0  0  0  0  0  0  0  0  0  0
   16.6748  -67.6316   -3.1847 H   0  0  0  0  0  0  0  0  0  0  0  0
   16.8127  -70.1456   -1.7839 H   0  0  0  0  0  0  0  0  0  0  0  0
   17.1846  -69.4727   -4.3303 H   0  0  0  0  0  0  0  0  0  0  0  0
   18.6539  -69.8713   -3.7395 H   0  0  0  0  0  0  0  0  0  0  0  0
   19.2517  -69.6932   -1.6242 H   0  0  0  0  0  0  0  0  0  0  0  0
   18.3005  -68.9379   -0.5328 H   0  0  0  0  0  0  0  0  0  0  0  0
   19.4101  -67.4835   -3.0197 H   0  0  0  0  0  0  0  0  0  0  0  0
  1  2  1  0  0  0  0
  2  3  1  0  0  0  0
  3  4  1  0  0  0  0
  3  5  1  0  0  0  0
  5  6  1  0  0  0  0
  6  7  1  0  0  0  0
  7  8  1  0  0  0  0
  8  9  1  0  0  0  0
  9 10  1  0  0  0  0
 10 11  2  0  0  0  0
 11 12  1  0  0  0  0
 12 13  2  0  0  0  0
 13 14  1  0  0  0  0
 14 15  2  0  0  0  0
  8 16  1  0  0  0  0
 16 17  2  0  0  0  0
 16 18  1  0  0  0  0
 18 19  1  0  0  0  0
 19 20  1  0  0  0  0
 20 21  1  0  0  0  0
 21 22  1  0  0  0  0
 22 23  1  0  0  0  0
 22 24  2  0  0  0  0
 22 25  2  0  0  0  0
 19 26  1  0  0  0  0
 26 27  2  0  0  0  0
 26 28  1  0  0  0  0
  5 29  1  0  0  0  0
 29 30  1  0  0  0  0
 30 31  1  0  0  0  0
 31 32  1  0  0  0  0
 31 33  1  0  0  0  0
 33 34  1  0  0  0  0
 15 10  1  0  0  0  0
  1 35  1  0  0  0  0
  1 36  1  0  0  0  0
  1 37  1  0  0  0  0
  2 38  1  0  0  0  0
  2 39  1  0  0  0  0
  3 40  1  0  0  0  0
  4 41  1  0  0  0  0
  4 42  1  0  0  0  0
  4 43  1  0  0  0  0
  5 44  1  0  0  0  0
  6 45  1  0  0  0  0
  6 46  1  0  0  0  0
  8 47  1  0  0  0  0
  9 48  1  0  0  0  0
  9 49  1  0  0  0  0
 11 50  1  0  0  0  0
 12 51  1  0  0  0  0
 13 52  1  0  0  0  0
 14 53  1  0  0  0  0
 15 54  1  0  0  0  0
 18 55  1  0  0  0  0
 19 56  1  0  0  0  0
 20 57  1  0  0  0  0
 20 58  1  0  0  0  0
 21 59  1  0  0  0  0
 21 60  1  0  0  0  0
 23 61  1  0  0  0  0
 23 62  1  0  0  0  0
 23 63  1  0  0  0  0
 29 64  1  0  0  0  0
 29 65  1  0  0  0  0
 30 66  1  0  0  0  0
 30 67  1  0  0  0  0
 31 68  1  0  0  0  0
 34 73  1  0  0  0  0
 32 69  1  0  0  0  0
 32 70  1  0  0  0  0
 33 71  1  0  0  0  0
 33 72  1  0  0  0  0
M  CHG  2  28  -1  29   1
M  END
> <BIOSOLVEIT.HYDE_ESTIMATED_AFFINITY_LOWER_BOUNDARY [nM]>
126528880320.133301

> <BIOSOLVEIT.HYDE_ESTIMATED_AFFINITY_UPPER_BOUNDARY [nM]>
12571392357751.031250

> <BIOSOLVEIT.HYDE_LIGAND_EFFICIENCY range: ++, +, 0, -, -->
--

> <BIOSOLVEIT.HYDE_LIGAND_LIPOPHILIC_EFFICIENCY range: ++, +, 0, -, -->
--

> <BIOSOLVEIT.INTER_CLASH range: red, yellow, green>
yellow

> <BIOSOLVEIT.INTRA_CLASH range: red, yellow, green>
red

> <BIOSOLVEIT.LOGP>
-0.4503

> <BIOSOLVEIT.MOLECULAR WEIGHT>
517.706

> <BIOSOLVEIT.MOLECULE_CHECKSUM>
MTcuNjk5Mzsw

> <BIOSOLVEIT.TORSION_QUALITY range: red, yellow, green, not rotatable>
red

> <BIOSOLVEIT.TPSA>
155.23

$$$$
1JCQ_739_2
foHydescor03192112153D 1   1.00000     0.00000     0
Hydescorer 1.1.0 fol007
 73 73  0  0  0  0            999 V2000
   11.7723  -69.1044   -3.9679 C   0  0  0  0  0  0  0  0  0  0  0  0
   12.3846  -68.1512   -2.9344 C   0  0  0  0  0  0  0  0  0  0  0  0
   12.5807  -68.7174   -1.4967 C   0  0  2  0  0  0  0  0  0  0  0  0
   11.6362  -68.0601   -0.4732 C   0  0  0  0  0  0  0  0  0  0  0  0
   14.0575  -68.8021   -0.9685 C   0  0  1  0  0  0  0  0  0  0  0  0
   14.1339  -69.4205    0.4580 C   0  0  0  0  0  0  0  0  0  0  0  0
   13.9488  -70.8268    0.4360 O   0  0  0  0  0  0  0  0  0  0  0  0
   14.3051  -71.4292    1.6676 C   0  0  2  0  0  0  0  0  0  0  0  0
   13.4900  -72.7213    1.8270 C   0  0  0  0  0  0  0  0  0  0  0  0
   13.8282  -73.4488    3.1041 C   0  0  0  0  0  0  0  0  0  0  0  0
   12.8792  -73.5289    4.1175 C   0  0  0  0  0  0  0  0  0  0  0  0
   13.1976  -74.2008    5.2929 C   0  0  0  0  0  0  0  0  0  0  0  0
   14.4489  -74.7854    5.4530 C   0  0  0  0  0  0  0  0  0  0  0  0
   15.3922  -74.6999    4.4339 C   0  0  0  0  0  0  0  0  0  0  0  0
   15.0830  -74.0301    3.2547 C   0  0  0  0  0  0  0  0  0  0  0  0
   14.0234  -70.4785    2.8036 C   0  0  0  0  0  0  0  0  0  0  0  0
   12.8388  -70.1034    3.0215 O   0  0  0  0  0  0  0  0  0  0  0  0
   15.0974  -70.0048    3.6293 N   0  0  0  0  0  0  0  0  0  0  0  0
   14.8766  -69.0788    4.7462 C   0  0  1  0  0  0  0  0  0  0  0  0
   13.5657  -69.4078    5.4851 C   0  0  0  0  0  0  0  0  0  0  0  0
   12.8131  -68.1666    5.9847 C   0  0  0  0  0  0  0  0  0  0  0  0
   13.1259  -66.7699    4.9175 S   0  0  0  0  0  0  0  0  0  0  0  0
   12.6169  -67.1683    3.2608 C   0  0  0  0  0  0  0  0  0  0  0  0
   12.3451  -65.5799    5.4003 O   0  0  0  0  0  0  0  0  0  0  0  0
   14.5916  -66.4385    4.9230 O   0  0  0  0  0  0  0  0  0  0  0  0
   16.0565  -69.0596    5.6833 C   0  0  0  0  0  0  0  0  0  0  0  0
   16.2497  -68.0900    6.4645 O   0  0  0  0  0  0  0  0  0  0  0  0
   16.9758  -70.1006    5.6507 O   0  5  0  0  0  0  0  0  0  0  0  0
   14.9798  -69.4675   -1.9234 N   0  3  0  0  0  0  0  0  0  0  0  0
   16.0315  -68.5640   -2.4539 C   0  0  0  0  0  0  0  0  0  0  0  0
   17.4176  -69.2501   -2.5835 C   0  0  1  0  0  0  0  0  0  0  0  0
   17.4191  -70.2297   -3.6810 N   0  0  0  0  0  0  0  0  0  0  0  0
   18.5080  -68.1809   -2.8082 C   0  0  0  0  0  0  0  0  0  0  0  0
   17.8879  -66.7998   -3.7524 S   0  0  0  0  0  0  0  0  0  0  0  0
   11.6943  -68.6362   -4.8482 H   0  0  0  0  0  0  0  0  0  0  0  0
   12.3586  -69.9081   -4.0686 H   0  0  0  0  0  0  0  0  0  0  0  0
   10.8645  -69.3904   -3.6610 H   0  0  0  0  0  0  0  0  0  0  0  0
   11.7875  -67.3518   -2.8673 H   0  0  0  0  0  0  0  0  0  0  0  0
   13.2816  -67.8696   -3.2749 H   0  0  0  0  0  0  0  0  0  0  0  0
   12.2747  -69.6678   -1.5526 H   0  0  0  0  0  0  0  0  0  0  0  0
   11.7985  -68.4543    0.4313 H   0  0  0  0  0  0  0  0  0  0  0  0
   11.8097  -67.0757   -0.4438 H   0  0  0  0  0  0  0  0  0  0  0  0
   10.6871  -68.2234   -0.7426 H   0  0  0  0  0  0  0  0  0  0  0  0
   14.3778  -67.8588   -0.8817 H   0  0  0  0  0  0  0  0  0  0  0  0
   13.4215  -69.0096    1.0269 H   0  0  0  0  0  0  0  0  0  0  0  0
   15.0314  -69.2187    0.8501 H   0  0  0  0  0  0  0  0  0  0  0  0
   15.2798  -71.6522    1.6570 H   0  0  0  0  0  0  0  0  0  0  0  0
   13.6835  -73.3228    1.0519 H   0  0  0  0  0  0  0  0  0  0  0  0
   12.5171  -72.4904    1.8349 H   0  0  0  0  0  0  0  0  0  0  0  0
   11.9791  -73.1086    4.0025 H   0  0  0  0  0  0  0  0  0  0  0  0
   12.5222  -74.2638    6.0276 H   0  0  0  0  0  0  0  0  0  0  0  0
   14.6708  -75.2674    6.3007 H   0  0  0  0  0  0  0  0  0  0  0  0
   16.2923  -75.1199    4.5491 H   0  0  0  0  0  0  0  0  0  0  0  0
   15.7584  -73.9667    2.5199 H   0  0  0  0  0  0  0  0  0  0  0  0
   16.0279  -70.3163    3.4370 H   0  0  0  0  0  0  0  0  0  0  0  0
   14.7828  -68.1605    4.3617 H   0  0  0  0  0  0  0  0  0  0  0  0
   13.7830  -69.9841    6.2729 H   0  0  0  0  0  0  0  0  0  0  0  0
   12.9679  -69.9095    4.8599 H   0  0  0  0  0  0  0  0  0  0  0  0
   13.1193  -67.9474    6.9110 H   0  0  0  0  0  0  0  0  0  0  0  0
   11.8319  -68.3593    5.9948 H   0  0  0  0  0  0  0  0  0  0  0  0
   12.7913  -66.3870    2.6615 H   0  0  0  0  0  0  0  0  0  0  0  0
   13.1331  -67.9603    2.9349 H   0  0  0  0  0  0  0  0  0  0  0  0
   11.6399  -67.3816    3.2545 H   0  0  0  0  0  0  0  0  0  0  0  0
   14.4432  -69.8152   -2.6922 H   0  0  0  0  0  0  0  0  0  0  0  0
   15.4244  -70.2310   -1.4549 H   0  0  0  0  0  0  0  0  0  0  0  0
   16.1202  -67.7824   -1.8364 H   0  0  0  0  0  0  0  0  0  0  0  0
   15.7493  -68.2441   -3.3583 H   0  0  0  0  0  0  0  0  0  0  0  0
   17.6153  -69.7304   -1.7290 H   0  0  0  0  0  0  0  0  0  0  0  0
   16.5140  -70.2560   -4.1056 H   0  0  0  0  0  0  0  0  0  0  0  0
   18.0999  -69.9644   -4.3638 H   0  0  0  0  0  0  0  0  0  0  0  0
   19.2721  -68.5952   -3.3027 H   0  0  0  0  0  0  0  0  0  0  0  0
   18.8261  -67.8500   -1.9198 H   0  0  0  0  0  0  0  0  0  0  0  0
   17.6790  -67.0994   -4.6833 H   0  0  0  0  0  0  0  0  0  0  0  0
  1  2  1  0  0  0  0
  2  3  1  0  0  0  0
  3  4  1  0  0  0  0
  3  5  1  0  0  0  0
  5  6  1  0  0  0  0
  6  7  1  0  0  0  0
  7  8  1  0  0  0  0
  8  9  1  0  0  0  0
  9 10  1  0  0  0  0
 10 11  2  0  0  0  0
 11 12  1  0  0  0  0
 12 13  2  0  0  0  0
 13 14  1  0  0  0  0
 14 15  2  0  0  0  0
  8 16  1  0  0  0  0
 16 17  2  0  0  0  0
 16 18  1  0  0  0  0
 18 19  1  0  0  0  0
 19 20  1  0  0  0  0
 20 21  1  0  0  0  0
 21 22  1  0  0  0  0
 22 23  1  0  0  0  0
 22 24  2  0  0  0  0
 22 25  2  0  0  0  0
 19 26  1  0  0  0  0
 26 27  2  0  0  0  0
 26 28  1  0  0  0  0
  5 29  1  0  0  0  0
 29 30  1  0  0  0  0
 30 31  1  0  0  0  0
 31 32  1  0  0  0  0
 31 33  1  0  0  0  0
 33 34  1  0  0  0  0
 15 10  1  0  0  0  0
  1 35  1  0  0  0  0
  1 36  1  0  0  0  0
  1 37  1  0  0  0  0
  2 38  1  0  0  0  0
  2 39  1  0  0  0  0
  3 40  1  0  0  0  0
  4 41  1  0  0  0  0
  4 42  1  0  0  0  0
  4 43  1  0  0  0  0
  5 44  1  0  0  0  0
  6 45  1  0  0  0  0
  6 46  1  0  0  0  0
  8 47  1  0  0  0  0
  9 48  1  0  0  0  0
  9 49  1  0  0  0  0
 11 50  1  0  0  0  0
 12 51  1  0  0  0  0
 13 52  1  0  0  0  0
 14 53  1  0  0  0  0
 15 54  1  0  0  0  0
 18 55  1  0  0  0  0
 19 56  1  0  0  0  0
 20 57  1  0  0  0  0
 20 58  1  0  0  0  0
 21 59  1  0  0  0  0
 21 60  1  0  0  0  0
 23 61  1  0  0  0  0
 23 62  1  0  0  0  0
 23 63  1  0  0  0  0
 29 64  1  0  0  0  0
 29 65  1  0  0  0  0
 30 66  1  0  0  0  0
 30 67  1  0  0  0  0
 31 68  1  0  0  0  0
 34 73  1  0  0  0  0
 32 69  1  0  0  0  0
 32 70  1  0  0  0  0
 33 71  1  0  0  0  0
 33 72  1  0  0  0  0
M  CHG  2  28  -1  29   1
M  END
> <BIOSOLVEIT.HYDE_ESTIMATED_AFFINITY_LOWER_BOUNDARY [nM]>
166490957.204317

> <BIOSOLVEIT.HYDE_ESTIMATED_AFFINITY_UPPER_BOUNDARY [nM]>
16541860970.692297

> <BIOSOLVEIT.HYDE_LIGAND_EFFICIENCY range: ++, +, 0, -, -->
--

> <BIOSOLVEIT.HYDE_LIGAND_LIPOPHILIC_EFFICIENCY range: ++, +, 0, -, -->
--

> <BIOSOLVEIT.INTER_CLASH range: red, yellow, green>
yellow

> <BIOSOLVEIT.INTRA_CLASH range: red, yellow, green>
red

> <BIOSOLVEIT.LOGP>
-0.4503

> <BIOSOLVEIT.MOLECULAR WEIGHT>
517.706

> <BIOSOLVEIT.MOLECULE_CHECKSUM>
MS4yNTU2OTsw

> <BIOSOLVEIT.TORSION_QUALITY range: red, yellow, green, not rotatable>
red

> <BIOSOLVEIT.TPSA>
155.23

$$$$
1JCQ_739_3
foHydescor03192112153D 1   1.00000     0.00000     0
Hydescorer 1.1.0 fol007
 73 73  0  0  0  0            999 V2000
   12.2588  -68.5952   -2.2228 C   0  0  0  0  0  0  0  0  0  0  0  0
   13.7430  -68.9395   -2.3964 C   0  0  0  0  0  0  0  0  0  0  0  0
   14.7593  -68.0420   -1.6296 C   0  0  2  0  0  0  0  0  0  0  0  0
   14.6352  -66.5556   -2.0128 C   0  0  0  0  0  0  0  0  0  0  0  0
   16.2537  -68.5254   -1.6140 C   0  0  1  0  0  0  0  0  0  0  0  0
   16.5506  -69.4691   -0.4121 C   0  0  0  0  0  0  0  0  0  0  0  0
   15.7430  -70.6350   -0.4424 O   0  0  0  0  0  0  0  0  0  0  0  0
   15.1593  -70.9101    0.8186 C   0  0  2  0  0  0  0  0  0  0  0  0
   14.3386  -72.2030    0.6993 C   0  0  0  0  0  0  0  0  0  0  0  0
   14.3360  -72.9914    1.9850 C   0  0  0  0  0  0  0  0  0  0  0  0
   15.3448  -72.7804    2.9187 C   0  0  0  0  0  0  0  0  0  0  0  0
   15.3368  -73.5113    4.1021 C   0  0  0  0  0  0  0  0  0  0  0  0
   14.3328  -74.4408    4.3489 C   0  0  0  0  0  0  0  0  0  0  0  0
   13.3277  -74.6455    3.4089 C   0  0  0  0  0  0  0  0  0  0  0  0
   13.3272  -73.9194    2.2224 C   0  0  0  0  0  0  0  0  0  0  0  0
   14.2809  -69.7589    1.2391 C   0  0  0  0  0  0  0  0  0  0  0  0
   13.1203  -69.6535    0.7563 O   0  0  0  0  0  0  0  0  0  0  0  0
   14.7649  -68.7908    2.1817 N   0  0  0  0  0  0  0  0  0  0  0  0
   13.9504  -67.6523    2.6227 C   0  0  1  0  0  0  0  0  0  0  0  0
   12.5807  -68.1235    3.1465 C   0  0  0  0  0  0  0  0  0  0  0  0
   12.2145  -67.5429    4.5195 C   0  0  0  0  0  0  0  0  0  0  0  0
   12.4854  -68.7513    5.8056 S   0  0  0  0  0  0  0  0  0  0  0  0
   11.8453  -68.1288    7.3435 C   0  0  0  0  0  0  0  0  0  0  0  0
   11.7746  -70.0287    5.4568 O   0  0  0  0  0  0  0  0  0  0  0  0
   13.9559  -69.0243    5.9512 O   0  0  0  0  0  0  0  0  0  0  0  0
   14.6818  -66.8180    3.6424 C   0  0  0  0  0  0  0  0  0  0  0  0
   14.2911  -65.6555    3.9312 O   0  0  0  0  0  0  0  0  0  0  0  0
   15.8351  -67.3153    4.2363 O   0  5  0  0  0  0  0  0  0  0  0  0
   16.6915  -69.1045   -2.9092 N   0  3  0  0  0  0  0  0  0  0  0  0
   18.1213  -69.5041   -2.9232 C   0  0  0  0  0  0  0  0  0  0  0  0
   19.0679  -68.3695   -3.3978 C   0  0  1  0  0  0  0  0  0  0  0  0
   19.0560  -68.2533   -4.8642 N   0  0  0  0  0  0  0  0  0  0  0  0
   18.6492  -67.0355   -2.7437 C   0  0  0  0  0  0  0  0  0  0  0  0
   19.3354  -66.8642   -1.1056 S   0  0  0  0  0  0  0  0  0  0  0  0
   11.7041  -69.2331   -2.7570 H   0  0  0  0  0  0  0  0  0  0  0  0
   12.0109  -68.6662   -1.2566 H   0  0  0  0  0  0  0  0  0  0  0  0
   12.0936  -67.6619   -2.5417 H   0  0  0  0  0  0  0  0  0  0  0  0
   13.9574  -68.8766   -3.3710 H   0  0  0  0  0  0  0  0  0  0  0  0
   13.8748  -69.8809   -2.0861 H   0  0  0  0  0  0  0  0  0  0  0  0
   14.4672  -68.0846   -0.6741 H   0  0  0  0  0  0  0  0  0  0  0  0
   15.3049  -66.0213   -1.4970 H   0  0  0  0  0  0  0  0  0  0  0  0
   14.8061  -66.4484   -2.9922 H   0  0  0  0  0  0  0  0  0  0  0  0
   13.7138  -66.2318   -1.7979 H   0  0  0  0  0  0  0  0  0  0  0  0
   16.8106  -67.7072   -1.4711 H   0  0  0  0  0  0  0  0  0  0  0  0
   16.3727  -68.9747    0.4387 H   0  0  0  0  0  0  0  0  0  0  0  0
   17.5123  -69.7412   -0.4447 H   0  0  0  0  0  0  0  0  0  0  0  0
   15.8828  -71.0390    1.4969 H   0  0  0  0  0  0  0  0  0  0  0  0
   14.7313  -72.7688   -0.0256 H   0  0  0  0  0  0  0  0  0  0  0  0
   13.3960  -71.9663    0.4639 H   0  0  0  0  0  0  0  0  0  0  0  0
   16.0669  -72.1117    2.7416 H   0  0  0  0  0  0  0  0  0  0  0  0
   16.0579  -73.3672    4.7797 H   0  0  0  0  0  0  0  0  0  0  0  0
   14.3330  -74.9623    5.2022 H   0  0  0  0  0  0  0  0  0  0  0  0
   12.6059  -75.3144    3.5861 H   0  0  0  0  0  0  0  0  0  0  0  0
   12.6063  -74.0636    1.5445 H   0  0  0  0  0  0  0  0  0  0  0  0
   15.6884  -68.8955    2.5505 H   0  0  0  0  0  0  0  0  0  0  0  0
   13.7844  -67.0739    1.8240 H   0  0  0  0  0  0  0  0  0  0  0  0
   12.5961  -69.1208    3.2189 H   0  0  0  0  0  0  0  0  0  0  0  0
   11.8791  -67.8478    2.4894 H   0  0  0  0  0  0  0  0  0  0  0  0
   11.2507  -67.2761    4.5170 H   0  0  0  0  0  0  0  0  0  0  0  0
   12.7823  -66.7395    4.6986 H   0  0  0  0  0  0  0  0  0  0  0  0
   11.9962  -68.8045    8.0652 H   0  0  0  0  0  0  0  0  0  0  0  0
   12.3146  -67.2780    7.5800 H   0  0  0  0  0  0  0  0  0  0  0  0
   10.8652  -67.9539    7.2503 H   0  0  0  0  0  0  0  0  0  0  0  0
   16.5458  -68.4232   -3.6265 H   0  0  0  0  0  0  0  0  0  0  0  0
   16.1345  -69.9130   -3.0994 H   0  0  0  0  0  0  0  0  0  0  0  0
   18.2273  -70.2849   -3.5389 H   0  0  0  0  0  0  0  0  0  0  0  0
   18.3857  -69.7719   -1.9967 H   0  0  0  0  0  0  0  0  0  0  0  0
   19.9983  -68.5886   -3.1043 H   0  0  0  0  0  0  0  0  0  0  0  0
   18.1108  -68.2486   -5.1905 H   0  0  0  0  0  0  0  0  0  0  0  0
   19.5064  -67.4025   -5.1349 H   0  0  0  0  0  0  0  0  0  0  0  0
   17.6515  -67.0030   -2.6828 H   0  0  0  0  0  0  0  0  0  0  0  0
   18.9733  -66.2794   -3.3121 H   0  0  0  0  0  0  0  0  0  0  0  0
   20.3334  -66.8990   -1.1570 H   0  0  0  0  0  0  0  0  0  0  0  0
  1  2  1  0  0  0  0
  2  3  1  0  0  0  0
  3  4  1  0  0  0  0
  3  5  1  0  0  0  0
  5  6  1  0  0  0  0
  6  7  1  0  0  0  0
  7  8  1  0  0  0  0
  8  9  1  0  0  0  0
  9 10  1  0  0  0  0
 10 11  2  0  0  0  0
 11 12  1  0  0  0  0
 12 13  2  0  0  0  0
 13 14  1  0  0  0  0
 14 15  2  0  0  0  0
  8 16  1  0  0  0  0
 16 17  2  0  0  0  0
 16 18  1  0  0  0  0
 18 19  1  0  0  0  0
 19 20  1  0  0  0  0
 20 21  1  0  0  0  0
 21 22  1  0  0  0  0
 22 23  1  0  0  0  0
 22 24  2  0  0  0  0
 22 25  2  0  0  0  0
 19 26  1  0  0  0  0
 26 27  2  0  0  0  0
 26 28  1  0  0  0  0
  5 29  1  0  0  0  0
 29 30  1  0  0  0  0
 30 31  1  0  0  0  0
 31 32  1  0  0  0  0
 31 33  1  0  0  0  0
 33 34  1  0  0  0  0
 15 10  1  0  0  0  0
  1 35  1  0  0  0  0
  1 36  1  0  0  0  0
  1 37  1  0  0  0  0
  2 38  1  0  0  0  0
  2 39  1  0  0  0  0
  3 40  1  0  0  0  0
  4 41  1  0  0  0  0
  4 42  1  0  0  0  0
  4 43  1  0  0  0  0
  5 44  1  0  0  0  0
  6 45  1  0  0  0  0
  6 46  1  0  0  0  0
  8 47  1  0  0  0  0
  9 48  1  0  0  0  0
  9 49  1  0  0  0  0
 11 50  1  0  0  0  0
 12 51  1  0  0  0  0
 13 52  1  0  0  0  0
 14 53  1  0  0  0  0
 15 54  1  0  0  0  0
 18 55  1  0  0  0  0
 19 56  1  0  0  0  0
 20 57  1  0  0  0  0
 20 58  1  0  0  0  0
 21 59  1  0  0  0  0
 21 60  1  0  0  0  0
 23 61  1  0  0  0  0
 23 62  1  0  0  0  0
 23 63  1  0  0  0  0
 29 64  1  0  0  0  0
 29 65  1  0  0  0  0
 30 66  1  0  0  0  0
 30 67  1  0  0  0  0
 31 68  1  0  0  0  0
 34 73  1  0  0  0  0
 32 69  1  0  0  0  0
 32 70  1  0  0  0  0
 33 71  1  0  0  0  0
 33 72  1  0  0  0  0
M  CHG  2  28  -1  29   1
M  END
> <BIOSOLVEIT.HYDE_ESTIMATED_AFFINITY_LOWER_BOUNDARY [nM]>
1031393999.938977

> <BIOSOLVEIT.HYDE_ESTIMATED_AFFINITY_UPPER_BOUNDARY [nM]>
102475091977.874557

> <BIOSOLVEIT.HYDE_LIGAND_EFFICIENCY range: ++, +, 0, -, -->
--

> <BIOSOLVEIT.HYDE_LIGAND_LIPOPHILIC_EFFICIENCY range: ++, +, 0, -, -->
--

> <BIOSOLVEIT.INTER_CLASH range: red, yellow, green>
green

> <BIOSOLVEIT.INTRA_CLASH range: red, yellow, green>
yellow

> <BIOSOLVEIT.LOGP>
-0.4503

> <BIOSOLVEIT.MOLECULAR WEIGHT>
517.706

> <BIOSOLVEIT.MOLECULE_CHECKSUM>
NS43NzY2Mzsw

> <BIOSOLVEIT.TORSION_QUALITY range: red, yellow, green, not rotatable>
red

> <BIOSOLVEIT.TPSA>
155.23

$$$$
1SA4_JAN_1
foHydescor03192112153D 1   1.00000     0.00000     0
Hydescorer 1.1.0 fol007
 57 61  0  0  0  0            999 V2000
   14.8371  -75.2808    3.7674 C   0  0  0  0  0  0  0  0  0  0  0  0
   13.7897  -74.9511    4.7453 N   0  0  0  0  0  0  0  0  0  0  0  0
   12.7799  -75.7829    5.1323 C   0  0  0  0  0  0  0  0  0  0  0  0
   12.0485  -75.1416    6.0169 N   0  0  0  0  0  0  0  0  0  0  0  0
   12.5770  -73.8962    6.2077 C   0  0  0  0  0  0  0  0  0  0  0  0
   13.6755  -73.7679    5.4087 C   0  0  0  0  0  0  0  0  0  0  0  0
   14.5834  -72.5546    5.2931 C   0  0  2  0  0  0  0  0  0  0  0  0
   13.8640  -71.3717    5.8293 N   0  3  0  0  0  0  0  0  0  0  0  0
   14.9676  -72.2832    3.8195 C   0  0  0  0  0  0  0  0  0  0  0  0
   16.3009  -72.3839    3.4339 C   0  0  0  0  0  0  0  0  0  0  0  0
   16.6628  -72.1441    2.1124 C   0  0  0  0  0  0  0  0  0  0  0  0
   15.6783  -71.8041    1.1912 C   0  0  0  0  0  0  0  0  0  0  0  0
   16.1251  -71.4937   -0.5039 Cl  0  0  0  0  0  0  0  0  0  0  0  0
   14.3455  -71.7033    1.5746 C   0  0  0  0  0  0  0  0  0  0  0  0
   13.9847  -71.9434    2.8964 C   0  0  0  0  0  0  0  0  0  0  0  0
   15.8692  -72.7991    6.1200 C   0  0  0  0  0  0  0  0  0  0  0  0
   16.7349  -71.7435    6.3713 C   0  0  0  0  0  0  0  0  0  0  0  0
   17.8740  -72.0133    7.1180 C   0  0  0  0  0  0  0  0  0  0  0  0
   18.1391  -73.2924    7.5967 C   0  0  0  0  0  0  0  0  0  0  0  0
   17.2509  -74.3238    7.3259 C   0  0  0  0  0  0  0  0  0  0  0  0
   16.1015  -74.0861    6.5808 C   0  0  0  0  0  0  0  0  0  0  0  0
   17.5323  -75.6610    7.8206 C   0  0  0  0  0  0  0  0  0  0  0  0
   16.6361  -76.7714    7.5555 C   0  0  0  0  0  0  0  0  0  0  0  0
   16.6811  -77.4042    6.3177 C   0  0  0  0  0  0  0  0  0  0  0  0
   15.8186  -78.4679    6.0719 C   0  0  0  0  0  0  0  0  0  0  0  0
   14.9210  -78.8993    7.0428 C   0  0  0  0  0  0  0  0  0  0  0  0
   14.8937  -78.2515    8.2734 C   0  0  0  0  0  0  0  0  0  0  0  0
   13.7516  -78.7878    9.5289 Cl  0  0  0  0  0  0  0  0  0  0  0  0
   15.7463  -77.1856    8.5409 C   0  0  0  0  0  0  0  0  0  0  0  0
   18.6114  -75.9370    8.5301 C   0  0  0  0  0  0  0  0  0  0  0  0
   19.5490  -74.8710    8.8266 C   0  0  0  0  0  0  0  0  0  0  0  0
   20.5460  -75.1259    9.4831 O   0  0  0  0  0  0  0  0  0  0  0  0
   19.2842  -73.5798    8.3509 N   0  0  0  0  0  0  0  0  0  0  0  0
   20.2697  -72.5351    8.6765 C   0  0  0  0  0  0  0  0  0  0  0  0
   15.4534  -74.5002    3.6631 H   0  0  0  0  0  0  0  0  0  0  0  0
   15.3549  -76.0739    4.0882 H   0  0  0  0  0  0  0  0  0  0  0  0
   14.4152  -75.4926    2.8858 H   0  0  0  0  0  0  0  0  0  0  0  0
   12.6239  -76.7138    4.8022 H   0  0  0  0  0  0  0  0  0  0  0  0
   12.2195  -73.1976    6.8274 H   0  0  0  0  0  0  0  0  0  0  0  0
   13.7816  -71.4537    6.8226 H   0  0  0  0  0  0  0  0  0  0  0  0
   14.3739  -70.5413    5.6046 H   0  0  0  0  0  0  0  0  0  0  0  0
   12.9519  -71.3234    5.4220 H   0  0  0  0  0  0  0  0  0  0  0  0
   16.9988  -72.6287    4.1070 H   0  0  0  0  0  0  0  0  0  0  0  0
   17.6190  -72.2152    1.8285 H   0  0  0  0  0  0  0  0  0  0  0  0
   13.6477  -71.4586    0.9014 H   0  0  0  0  0  0  0  0  0  0  0  0
   13.0283  -71.8723    3.1798 H   0  0  0  0  0  0  0  0  0  0  0  0
   16.5454  -70.8238    6.0276 H   0  0  0  0  0  0  0  0  0  0  0  0
   18.5168  -71.2731    7.3157 H   0  0  0  0  0  0  0  0  0  0  0  0
   15.4580  -74.8253    6.3819 H   0  0  0  0  0  0  0  0  0  0  0  0
   17.3238  -77.0992    5.6149 H   0  0  0  0  0  0  0  0  0  0  0  0
   15.8444  -78.9285    5.1847 H   0  0  0  0  0  0  0  0  0  0  0  0
   14.3040  -79.6645    6.8587 H   0  0  0  0  0  0  0  0  0  0  0  0
   15.7200  -76.7243    9.4278 H   0  0  0  0  0  0  0  0  0  0  0  0
   18.7795  -76.8667    8.8578 H   0  0  0  0  0  0  0  0  0  0  0  0
   19.9732  -71.6637    8.2857 H   0  0  0  0  0  0  0  0  0  0  0  0
   20.3457  -72.4464    9.6696 H   0  0  0  0  0  0  0  0  0  0  0  0
   21.1596  -72.7859    8.2952 H   0  0  0  0  0  0  0  0  0  0  0  0
  1  2  1  0  0  0  0
  2  3  1  0  0  0  0
  3  4  2  0  0  0  0
  4  5  1  0  0  0  0
  5  6  2  0  0  0  0
  6  7  1  0  0  0  0
  7  8  1  0  0  0  0
  7  9  1  0  0  0  0
  9 10  2  0  0  0  0
 10 11  1  0  0  0  0
 11 12  2  0  0  0  0
 12 13  1  0  0  0  0
 12 14  1  0  0  0  0
 14 15  2  0  0  0  0
  7 16  1  0  0  0  0
 16 17  2  0  0  0  0
 17 18  1  0  0  0  0
 18 19  2  0  0  0  0
 19 20  1  0  0  0  0
 20 21  2  0  0  0  0
 20 22  1  0  0  0  0
 22 23  1  0  0  0  0
 23 24  2  0  0  0  0
 24 25  1  0  0  0  0
 25 26  2  0  0  0  0
 26 27  1  0  0  0  0
 27 28  1  0  0  0  0
 27 29  2  0  0  0  0
 22 30  2  0  0  0  0
 30 31  1  0  0  0  0
 31 32  2  0  0  0  0
 31 33  1  0  0  0  0
 33 34  1  0  0  0  0
  6  2  1  0  0  0  0
 15  9  1  0  0  0  0
 21 16  1  0  0  0  0
 29 23  1  0  0  0  0
 33 19  1  0  0  0  0
  1 35  1  0  0  0  0
  1 36  1  0  0  0  0
  1 37  1  0  0  0  0
  3 38  1  0  0  0  0
  5 39  1  0  0  0  0
  8 40  1  0  0  0  0
  8 41  1  0  0  0  0
  8 42  1  0  0  0  0
 10 43  1  0  0  0  0
 11 44  1  0  0  0  0
 14 45  1  0  0  0  0
 15 46  1  0  0  0  0
 17 47  1  0  0  0  0
 18 48  1  0  0  0  0
 21 49  1  0  0  0  0
 24 50  1  0  0  0  0
 25 51  1  0  0  0  0
 26 52  1  0  0  0  0
 29 53  1  0  0  0  0
 30 54  1  0  0  0  0
 34 55  1  0  0  0  0
 34 56  1  0  0  0  0
 34 57  1  0  0  0  0
M  CHG  1   8   1
M  END
> <BIOSOLVEIT.HYDE_ESTIMATED_AFFINITY_LOWER_BOUNDARY [nM]>
21034.254460

> <BIOSOLVEIT.HYDE_ESTIMATED_AFFINITY_UPPER_BOUNDARY [nM]>
2089877.544946

> <BIOSOLVEIT.HYDE_LIGAND_EFFICIENCY range: ++, +, 0, -, -->
--

> <BIOSOLVEIT.HYDE_LIGAND_LIPOPHILIC_EFFICIENCY range: ++, +, 0, -, -->
--

> <BIOSOLVEIT.INTER_CLASH range: red, yellow, green>
green

> <BIOSOLVEIT.INTRA_CLASH range: red, yellow, green>
yellow

> <BIOSOLVEIT.LOGP>
4.6688

> <BIOSOLVEIT.MOLECULAR WEIGHT>
490.412

> <BIOSOLVEIT.MOLECULE_CHECKSUM>
LTIwLjk5Njg7MC42MTc1NTI=

> <BIOSOLVEIT.TORSION_QUALITY range: red, yellow, green, not rotatable>
yellow

> <BIOSOLVEIT.TPSA>
65.77

$$$$
1SA4_JAN_2
foHydescor03192112153D 1   1.00000     0.00000     0
Hydescorer 1.1.0 fol007
 57 61  0  0  0  0            999 V2000
   14.8443  -75.2774    3.7658 C   0  0  0  0  0  0  0  0  0  0  0  0
   13.7964  -74.9471    4.7430 N   0  0  0  0  0  0  0  0  0  0  0  0
   12.7858  -75.7785    5.1290 C   0  0  0  0  0  0  0  0  0  0  0  0
   12.0541  -75.1368    6.0133 N   0  0  0  0  0  0  0  0  0  0  0  0
   12.5833  -73.8918    6.2048 C   0  0  0  0  0  0  0  0  0  0  0  0
   13.6826  -73.7640    5.4067 C   0  0  0  0  0  0  0  0  0  0  0  0
   14.5914  -72.5513    5.2919 C   0  0  2  0  0  0  0  0  0  0  0  0
   13.8723  -71.3681    5.8279 N   0  3  0  0  0  0  0  0  0  0  0  0
   14.9771  -72.2801    3.8188 C   0  0  0  0  0  0  0  0  0  0  0  0
   13.9828  -71.9430    2.9056 C   0  0  0  0  0  0  0  0  0  0  0  0
   14.3132  -71.6949    1.5775 C   0  0  0  0  0  0  0  0  0  0  0  0
   15.6425  -71.7895    1.1808 C   0  0  0  0  0  0  0  0  0  0  0  0
   16.0819  -71.4754   -0.5154 Cl  0  0  0  0  0  0  0  0  0  0  0  0
   16.6377  -72.1259    2.0920 C   0  0  0  0  0  0  0  0  0  0  0  0
   16.3062  -72.3736    3.4199 C   0  0  0  0  0  0  0  0  0  0  0  0
   15.8763  -72.7969    6.1201 C   0  0  0  0  0  0  0  0  0  0  0  0
   16.7427  -71.7420    6.3719 C   0  0  0  0  0  0  0  0  0  0  0  0
   17.8809  -72.0126    7.1196 C   0  0  0  0  0  0  0  0  0  0  0  0
   18.1445  -73.2918    7.5989 C   0  0  0  0  0  0  0  0  0  0  0  0
   17.2555  -74.3226    7.3275 C   0  0  0  0  0  0  0  0  0  0  0  0
   16.1071  -74.0840    6.5813 C   0  0  0  0  0  0  0  0  0  0  0  0
   17.5353  -75.6597    7.8228 C   0  0  0  0  0  0  0  0  0  0  0  0
   16.6383  -76.7695    7.5572 C   0  0  0  0  0  0  0  0  0  0  0  0
   16.6823  -77.4012    6.3188 C   0  0  0  0  0  0  0  0  0  0  0  0
   15.8190  -78.4641    6.0724 C   0  0  0  0  0  0  0  0  0  0  0  0
   14.9218  -78.8960    7.0435 C   0  0  0  0  0  0  0  0  0  0  0  0
   14.8956  -78.2493    8.2747 C   0  0  0  0  0  0  0  0  0  0  0  0
   13.7539  -78.7861    9.5304 Cl  0  0  0  0  0  0  0  0  0  0  0  0
   15.7490  -77.1840    8.5428 C   0  0  0  0  0  0  0  0  0  0  0  0
   18.6135  -75.9366    8.5333 C   0  0  0  0  0  0  0  0  0  0  0  0
   19.5519  -74.8714    8.8304 C   0  0  0  0  0  0  0  0  0  0  0  0
   20.5481  -75.1269    9.4877 O   0  0  0  0  0  0  0  0  0  0  0  0
   19.2886  -73.5800    8.3540 N   0  0  0  0  0  0  0  0  0  0  0  0
   20.2748  -72.5362    8.6803 C   0  0  0  0  0  0  0  0  0  0  0  0
   15.4612  -74.4973    3.6622 H   0  0  0  0  0  0  0  0  0  0  0  0
   15.3613  -76.0709    4.0868 H   0  0  0  0  0  0  0  0  0  0  0  0
   14.4229  -75.4886    2.8839 H   0  0  0  0  0  0  0  0  0  0  0  0
   12.6294  -76.7093    4.7985 H   0  0  0  0  0  0  0  0  0  0  0  0
   12.2258  -73.1930    6.8244 H   0  0  0  0  0  0  0  0  0  0  0  0
   13.7908  -71.4493    6.8212 H   0  0  0  0  0  0  0  0  0  0  0  0
   14.3818  -70.5378    5.6020 H   0  0  0  0  0  0  0  0  0  0  0  0
   12.9598  -71.3202    5.4214 H   0  0  0  0  0  0  0  0  0  0  0  0
   13.0306  -71.8791    3.2043 H   0  0  0  0  0  0  0  0  0  0  0  0
   13.6036  -71.4517    0.9162 H   0  0  0  0  0  0  0  0  0  0  0  0
   17.5899  -72.1895    1.7931 H   0  0  0  0  0  0  0  0  0  0  0  0
   17.0161  -72.6165    4.0810 H   0  0  0  0  0  0  0  0  0  0  0  0
   16.5543  -70.8222    6.0278 H   0  0  0  0  0  0  0  0  0  0  0  0
   18.5243  -71.2731    7.3177 H   0  0  0  0  0  0  0  0  0  0  0  0
   15.4631  -74.8226    6.3820 H   0  0  0  0  0  0  0  0  0  0  0  0
   17.3248  -77.0958    5.6160 H   0  0  0  0  0  0  0  0  0  0  0  0
   15.8439  -78.9239    5.1847 H   0  0  0  0  0  0  0  0  0  0  0  0
   14.3043  -79.6607    6.8592 H   0  0  0  0  0  0  0  0  0  0  0  0
   15.7234  -76.7236    9.4302 H   0  0  0  0  0  0  0  0  0  0  0  0
   18.7804  -76.8664    8.8615 H   0  0  0  0  0  0  0  0  0  0  0  0
   19.9795  -71.6646    8.2889 H   0  0  0  0  0  0  0  0  0  0  0  0
   20.3499  -72.4474    9.6735 H   0  0  0  0  0  0  0  0  0  0  0  0
   21.1648  -72.7878    8.2999 H   0  0  0  0  0  0  0  0  0  0  0  0
  1  2  1  0  0  0  0
  2  3  1  0  0  0  0
  3  4  2  0  0  0  0
  4  5  1  0  0  0  0
  5  6  2  0  0  0  0
  6  7  1  0  0  0  0
  7  8  1  0  0  0  0
  7  9  1  0  0  0  0
  9 10  2  0  0  0  0
 10 11  1  0  0  0  0
 11 12  2  0  0  0  0
 12 13  1  0  0  0  0
 12 14  1  0  0  0  0
 14 15  2  0  0  0  0
  7 16  1  0  0  0  0
 16 17  2  0  0  0  0
 17 18  1  0  0  0  0
 18 19  2  0  0  0  0
 19 20  1  0  0  0  0
 20 21  2  0  0  0  0
 20 22  1  0  0  0  0
 22 23  1  0  0  0  0
 23 24  2  0  0  0  0
 24 25  1  0  0  0  0
 25 26  2  0  0  0  0
 26 27  1  0  0  0  0
 27 28  1  0  0  0  0
 27 29  2  0  0  0  0
 22 30  2  0  0  0  0
 30 31  1  0  0  0  0
 31 32  2  0  0  0  0
 31 33  1  0  0  0  0
 33 34  1  0  0  0  0
  6  2  1  0  0  0  0
 15  9  1  0  0  0  0
 21 16  1  0  0  0  0
 29 23  1  0  0  0  0
 33 19  1  0  0  0  0
  1 35  1  0  0  0  0
  1 36  1  0  0  0  0
  1 37  1  0  0  0  0
  3 38  1  0  0  0  0
  5 39  1  0  0  0  0
  8 40  1  0  0  0  0
  8 41  1  0  0  0  0
  8 42  1  0  0  0  0
 10 43  1  0  0  0  0
 11 44  1  0  0  0  0
 14 45  1  0  0  0  0
 15 46  1  0  0  0  0
 17 47  1  0  0  0  0
 18 48  1  0  0  0  0
 21 49  1  0  0  0  0
 24 50  1  0  0  0  0
 25 51  1  0  0  0  0
 26 52  1  0  0  0  0
 29 53  1  0  0  0  0
 30 54  1  0  0  0  0
 34 55  1  0  0  0  0
 34 56  1  0  0  0  0
 34 57  1  0  0  0  0
M  CHG  1   8   1
M  END
> <BIOSOLVEIT.HYDE_ESTIMATED_AFFINITY_LOWER_BOUNDARY [nM]>
21350.143418

> <BIOSOLVEIT.HYDE_ESTIMATED_AFFINITY_UPPER_BOUNDARY [nM]>
2121262.980658

> <BIOSOLVEIT.HYDE_LIGAND_EFFICIENCY range: ++, +, 0, -, -->
--

> <BIOSOLVEIT.HYDE_LIGAND_LIPOPHILIC_EFFICIENCY range: ++, +, 0, -, -->
--

> <BIOSOLVEIT.INTER_CLASH range: red, yellow, green>
green

> <BIOSOLVEIT.INTRA_CLASH range: red, yellow, green>
yellow

> <BIOSOLVEIT.LOGP>
4.6688

> <BIOSOLVEIT.MOLECULAR WEIGHT>
490.412

> <BIOSOLVEIT.MOLECULE_CHECKSUM>
LTIwLjk1OTg7MC42MTY0NjU=

> <BIOSOLVEIT.TORSION_QUALITY range: red, yellow, green, not rotatable>
yellow

> <BIOSOLVEIT.TPSA>
65.77

$$$$
1SA4_JAN_3
foHydescor03192112153D 1   1.00000     0.00000     0
Hydescorer 1.1.0 fol007
 57 61  0  0  0  0            999 V2000
   15.3763  -75.5704    4.1862 C   0  0  0  0  0  0  0  0  0  0  0  0
   14.0575  -75.6542    4.8309 N   0  0  0  0  0  0  0  0  0  0  0  0
   13.2719  -76.7686    4.8811 C   0  0  0  0  0  0  0  0  0  0  0  0
   12.1763  -76.4579    5.5386 N   0  0  0  0  0  0  0  0  0  0  0  0
   12.2446  -75.1467    5.9165 C   0  0  0  0  0  0  0  0  0  0  0  0
   13.4281  -74.6323    5.4735 C   0  0  0  0  0  0  0  0  0  0  0  0
   13.9357  -73.2128    5.6665 C   0  0  2  0  0  0  0  0  0  0  0  0
   13.0255  -72.5077    6.6039 N   0  3  0  0  0  0  0  0  0  0  0  0
   13.9686  -72.4442    4.3246 C   0  0  0  0  0  0  0  0  0  0  0  0
   13.9862  -71.0529    4.3372 C   0  0  0  0  0  0  0  0  0  0  0  0
   14.0167  -70.3467    3.1392 C   0  0  0  0  0  0  0  0  0  0  0  0
   14.0285  -71.0487    1.9390 C   0  0  0  0  0  0  0  0  0  0  0  0
   14.0674  -70.1599    0.3971 Cl  0  0  0  0  0  0  0  0  0  0  0  0
   14.0111  -72.4391    1.9245 C   0  0  0  0  0  0  0  0  0  0  0  0
   13.9807  -73.1442    3.1231 C   0  0  0  0  0  0  0  0  0  0  0  0
   15.3631  -73.2587    6.2647 C   0  0  0  0  0  0  0  0  0  0  0  0
   16.2195  -72.1820    6.0802 C   0  0  0  0  0  0  0  0  0  0  0  0
   17.4887  -72.2705    6.6363 C   0  0  0  0  0  0  0  0  0  0  0  0
   17.8884  -73.3951    7.3514 C   0  0  0  0  0  0  0  0  0  0  0  0
   17.0050  -74.4529    7.5157 C   0  0  0  0  0  0  0  0  0  0  0  0
   15.7274  -74.3950    6.9709 C   0  0  0  0  0  0  0  0  0  0  0  0
   17.4260  -75.6298    8.2569 C   0  0  0  0  0  0  0  0  0  0  0  0
   16.5392  -76.7630    8.4475 C   0  0  0  0  0  0  0  0  0  0  0  0
   15.8191  -76.8743    9.6322 C   0  0  0  0  0  0  0  0  0  0  0  0
   14.9713  -77.9636    9.8068 C   0  0  0  0  0  0  0  0  0  0  0  0
   14.8390  -78.9321    8.8173 C   0  0  0  0  0  0  0  0  0  0  0  0
   15.5689  -78.8000    7.6405 C   0  0  0  0  0  0  0  0  0  0  0  0
   15.4144  -80.0292    6.3625 Cl  0  0  0  0  0  0  0  0  0  0  0  0
   16.4229  -77.7196    7.4446 C   0  0  0  0  0  0  0  0  0  0  0  0
   18.6296  -75.7331    8.7908 C   0  0  0  0  0  0  0  0  0  0  0  0
   19.5646  -74.6359    8.6330 C   0  0  0  0  0  0  0  0  0  0  0  0
   20.6768  -74.7309    9.1271 O   0  0  0  0  0  0  0  0  0  0  0  0
   19.1653  -73.4989    7.9176 N   0  0  0  0  0  0  0  0  0  0  0  0
   20.1539  -72.4156    7.7835 C   0  0  0  0  0  0  0  0  0  0  0  0
   15.7404  -74.6450    4.2912 H   0  0  0  0  0  0  0  0  0  0  0  0
   15.9993  -76.2244    4.6154 H   0  0  0  0  0  0  0  0  0  0  0  0
   15.2861  -75.7849    3.2137 H   0  0  0  0  0  0  0  0  0  0  0  0
   13.4904  -77.6618    4.4882 H   0  0  0  0  0  0  0  0  0  0  0  0
   11.5460  -74.6488    6.4303 H   0  0  0  0  0  0  0  0  0  0  0  0
   13.4495  -71.6518    6.8998 H   0  0  0  0  0  0  0  0  0  0  0  0
   12.1606  -72.3094    6.1429 H   0  0  0  0  0  0  0  0  0  0  0  0
   12.8534  -73.0872    7.4006 H   0  0  0  0  0  0  0  0  0  0  0  0
   13.9769  -70.5606    5.2076 H   0  0  0  0  0  0  0  0  0  0  0  0
   14.0300  -69.3468    3.1412 H   0  0  0  0  0  0  0  0  0  0  0  0
   14.0206  -72.9311    1.0540 H   0  0  0  0  0  0  0  0  0  0  0  0
   13.9676  -74.1441    3.1208 H   0  0  0  0  0  0  0  0  0  0  0  0
   15.9333  -71.3732    5.5664 H   0  0  0  0  0  0  0  0  0  0  0  0
   18.1284  -71.5108    6.5204 H   0  0  0  0  0  0  0  0  0  0  0  0
   15.0868  -75.1542    7.0855 H   0  0  0  0  0  0  0  0  0  0  0  0
   15.9093  -76.1818   10.3478 H   0  0  0  0  0  0  0  0  0  0  0  0
   14.4498  -78.0514   10.6555 H   0  0  0  0  0  0  0  0  0  0  0  0
   14.2278  -79.7122    8.9499 H   0  0  0  0  0  0  0  0  0  0  0  0
   16.9450  -77.6321    6.5962 H   0  0  0  0  0  0  0  0  0  0  0  0
   18.8920  -76.5552    9.2960 H   0  0  0  0  0  0  0  0  0  0  0  0
   19.7558  -71.6643    7.2571 H   0  0  0  0  0  0  0  0  0  0  0  0
   20.4126  -72.0860    8.6915 H   0  0  0  0  0  0  0  0  0  0  0  0
   20.9647  -72.7608    7.3107 H   0  0  0  0  0  0  0  0  0  0  0  0
  1  2  1  0  0  0  0
  2  3  1  0  0  0  0
  3  4  2  0  0  0  0
  4  5  1  0  0  0  0
  5  6  2  0  0  0  0
  6  7  1  0  0  0  0
  7  8  1  0  0  0  0
  7  9  1  0  0  0  0
  9 10  2  0  0  0  0
 10 11  1  0  0  0  0
 11 12  2  0  0  0  0
 12 13  1  0  0  0  0
 12 14  1  0  0  0  0
 14 15  2  0  0  0  0
  7 16  1  0  0  0  0
 16 17  2  0  0  0  0
 17 18  1  0  0  0  0
 18 19  2  0  0  0  0
 19 20  1  0  0  0  0
 20 21  2  0  0  0  0
 20 22  1  0  0  0  0
 22 23  1  0  0  0  0
 23 24  2  0  0  0  0
 24 25  1  0  0  0  0
 25 26  2  0  0  0  0
 26 27  1  0  0  0  0
 27 28  1  0  0  0  0
 27 29  2  0  0  0  0
 22 30  2  0  0  0  0
 30 31  1  0  0  0  0
 31 32  2  0  0  0  0
 31 33  1  0  0  0  0
 33 34  1  0  0  0  0
  6  2  1  0  0  0  0
 15  9  1  0  0  0  0
 21 16  1  0  0  0  0
 29 23  1  0  0  0  0
 33 19  1  0  0  0  0
  1 35  1  0  0  0  0
  1 36  1  0  0  0  0
  1 37  1  0  0  0  0
  3 38  1  0  0  0  0
  5 39  1  0  0  0  0
  8 40  1  0  0  0  0
  8 41  1  0  0  0  0
  8 42  1  0  0  0  0
 10 43  1  0  0  0  0
 11 44  1  0  0  0  0
 14 45  1  0  0  0  0
 15 46  1  0  0  0  0
 17 47  1  0  0  0  0
 18 48  1  0  0  0  0
 21 49  1  0  0  0  0
 24 50  1  0  0  0  0
 25 51  1  0  0  0  0
 26 52  1  0  0  0  0
 29 53  1  0  0  0  0
 30 54  1  0  0  0  0
 34 55  1  0  0  0  0
 34 56  1  0  0  0  0
 34 57  1  0  0  0  0
M  CHG  1   8   1
M  END
> <BIOSOLVEIT.HYDE_ESTIMATED_AFFINITY_LOWER_BOUNDARY [nM]>
15892.555023

> <BIOSOLVEIT.HYDE_ESTIMATED_AFFINITY_UPPER_BOUNDARY [nM]>
1579019.305731

> <BIOSOLVEIT.HYDE_LIGAND_EFFICIENCY range: ++, +, 0, -, -->
--

> <BIOSOLVEIT.HYDE_LIGAND_LIPOPHILIC_EFFICIENCY range: ++, +, 0, -, -->
--

> <BIOSOLVEIT.INTER_CLASH range: red, yellow, green>
green

> <BIOSOLVEIT.INTRA_CLASH range: red, yellow, green>
yellow

> <BIOSOLVEIT.LOGP>
4.6688

> <BIOSOLVEIT.MOLECULAR WEIGHT>
490.412

> <BIOSOLVEIT.MOLECULE_CHECKSUM>
LTIxLjY5MTY7MC42Mzc5ODk=

> <BIOSOLVEIT.TORSION_QUALITY range: red, yellow, green, not rotatable>
green

> <BIOSOLVEIT.TPSA>
65.77

$$$$
1MZC_BNE_1
foHydescor03192112153D 1   1.00000     0.00000     0
Hydescorer 1.1.0 fol007
 69 72  0  0  0  0            999 V2000
   17.6314  -71.0253    4.1116 C   0  0  0  0  0  0  0  0  0  0  0  0
   16.5705  -71.6891    3.2233 C   0  0  0  0  0  0  0  0  0  0  0  0
   15.2492  -71.9976    3.9107 C   0  0  2  0  0  0  0  0  0  0  0  0
   14.5728  -70.6734    4.2235 C   0  0  0  0  0  0  0  0  0  0  0  0
   14.6433  -70.1436    5.5078 C   0  0  0  0  0  0  0  0  0  0  0  0
   14.0165  -68.9299    5.7714 C   0  0  0  0  0  0  0  0  0  0  0  0
   13.3269  -68.2479    4.7745 C   0  0  0  0  0  0  0  0  0  0  0  0
   13.2686  -68.7958    3.4971 C   0  0  0  0  0  0  0  0  0  0  0  0
   12.5745  -68.1146    2.4857 O   0  0  0  0  0  0  0  0  0  0  0  0
   13.1700  -67.4502    1.4726 C   0  0  0  0  0  0  0  0  0  0  0  0
   13.8253  -68.1824    0.4882 C   0  0  0  0  0  0  0  0  0  0  0  0
   14.4414  -67.5045   -0.5586 C   0  0  0  0  0  0  0  0  0  0  0  0
   15.1690  -68.3039   -1.6525 C   0  0  2  0  0  0  0  0  0  0  0  0
   16.2209  -67.3590   -2.2800 C   0  0  0  0  0  0  0  0  0  0  0  0
   14.2523  -68.7529   -2.7212 N   0  3  0  0  0  0  0  0  0  0  0  0
   15.8385  -69.5438   -1.0381 C   0  0  0  0  0  0  0  0  0  0  0  0
   15.3352  -70.8115   -1.0505 C   0  0  0  0  0  0  0  0  0  0  0  0
   16.2379  -71.6034   -0.4049 N   0  0  0  0  0  0  0  0  0  0  0  0
   17.2484  -70.8569   -0.0138 C   0  0  0  0  0  0  0  0  0  0  0  0
   17.0368  -69.5691   -0.3970 N   0  0  0  0  0  0  0  0  0  0  0  0
   17.9256  -68.4225   -0.1570 C   0  0  0  0  0  0  0  0  0  0  0  0
   14.4093  -66.1156   -0.6301 C   0  0  0  0  0  0  0  0  0  0  0  0
   13.7511  -65.3938    0.3601 C   0  0  0  0  0  0  0  0  0  0  0  0
   13.1312  -66.0611    1.4114 C   0  0  0  0  0  0  0  0  0  0  0  0
   12.4117  -65.2724    2.4935 C   0  0  0  0  0  0  0  0  0  0  0  0
   11.8650  -64.6726    3.3185 N   0  0  0  0  0  0  0  0  0  0  0  0
   13.8883  -70.0078    3.2116 C   0  0  0  0  0  0  0  0  0  0  0  0
   15.4837  -72.6755    5.2550 C   0  0  0  0  0  0  0  0  0  0  0  0
   15.7041  -74.1828    5.1780 C   0  0  0  0  0  0  0  0  0  0  0  0
   14.3851  -74.9328    5.2689 C   0  0  0  0  0  0  0  0  0  0  0  0
   13.2871  -73.9980    4.7875 C   0  0  0  0  0  0  0  0  0  0  0  0
   13.4193  -73.7246    3.3480 N   0  0  0  0  0  0  0  0  0  0  0  0
   12.5805  -74.4553    2.3845 C   0  0  0  0  0  0  0  0  0  0  0  0
   14.3562  -72.7615    2.9384 C   0  0  0  0  0  0  0  0  0  0  0  0
   14.4584  -72.5337    1.7464 O   0  0  0  0  0  0  0  0  0  0  0  0
   18.4600  -70.8621    3.5760 H   0  0  0  0  0  0  0  0  0  0  0  0
   17.2802  -70.1547    4.4562 H   0  0  0  0  0  0  0  0  0  0  0  0
   17.8452  -71.6267    4.8815 H   0  0  0  0  0  0  0  0  0  0  0  0
   16.9485  -72.5489    2.8802 H   0  0  0  0  0  0  0  0  0  0  0  0
   16.3837  -71.0770    2.4549 H   0  0  0  0  0  0  0  0  0  0  0  0
   15.1369  -70.6276    6.2303 H   0  0  0  0  0  0  0  0  0  0  0  0
   14.0626  -68.5418    6.6919 H   0  0  0  0  0  0  0  0  0  0  0  0
   12.8792  -67.3760    4.9732 H   0  0  0  0  0  0  0  0  0  0  0  0
   13.8531  -69.1810    0.5322 H   0  0  0  0  0  0  0  0  0  0  0  0
   16.7179  -67.8443   -2.9995 H   0  0  0  0  0  0  0  0  0  0  0  0
   15.7615  -66.5618   -2.6716 H   0  0  0  0  0  0  0  0  0  0  0  0
   16.8636  -67.0602   -1.5745 H   0  0  0  0  0  0  0  0  0  0  0  0
   14.1773  -68.0393   -3.4177 H   0  0  0  0  0  0  0  0  0  0  0  0
   14.6097  -69.5889   -3.1376 H   0  0  0  0  0  0  0  0  0  0  0  0
   13.3494  -68.9344   -2.3314 H   0  0  0  0  0  0  0  0  0  0  0  0
   14.4692  -71.1042   -1.4559 H   0  0  0  0  0  0  0  0  0  0  0  0
   18.0485  -71.1857    0.4878 H   0  0  0  0  0  0  0  0  0  0  0  0
   17.5187  -67.5974   -0.5490 H   0  0  0  0  0  0  0  0  0  0  0  0
   18.0501  -68.2975    0.8273 H   0  0  0  0  0  0  0  0  0  0  0  0
   18.8127  -68.5928   -0.5863 H   0  0  0  0  0  0  0  0  0  0  0  0
   14.8562  -65.6396   -1.3877 H   0  0  0  0  0  0  0  0  0  0  0  0
   13.7235  -64.3952    0.3160 H   0  0  0  0  0  0  0  0  0  0  0  0
   13.8423  -70.3958    2.2910 H   0  0  0  0  0  0  0  0  0  0  0  0
   14.6852  -72.5063    5.8327 H   0  0  0  0  0  0  0  0  0  0  0  0
   16.2924  -72.2634    5.6749 H   0  0  0  0  0  0  0  0  0  0  0  0
   16.2937  -74.4659    5.9344 H   0  0  0  0  0  0  0  0  0  0  0  0
   16.1468  -74.4044    4.3093 H   0  0  0  0  0  0  0  0  0  0  0  0
   14.2114  -75.2028    6.2161 H   0  0  0  0  0  0  0  0  0  0  0  0
   14.4163  -75.7478    4.6904 H   0  0  0  0  0  0  0  0  0  0  0  0
   13.3478  -73.1360    5.2908 H   0  0  0  0  0  0  0  0  0  0  0  0
   12.3980  -74.4223    4.9591 H   0  0  0  0  0  0  0  0  0  0  0  0
   12.7960  -74.1507    1.4568 H   0  0  0  0  0  0  0  0  0  0  0  0
   12.7593  -75.4360    2.4634 H   0  0  0  0  0  0  0  0  0  0  0  0
   11.6161  -74.2756    2.5788 H   0  0  0  0  0  0  0  0  0  0  0  0
  1  2  1  0  0  0  0
  2  3  1  0  0  0  0
  3  4  1  0  0  0  0
  4  5  2  0  0  0  0
  5  6  1  0  0  0  0
  6  7  2  0  0  0  0
  7  8  1  0  0  0  0
  8  9  1  0  0  0  0
  9 10  1  0  0  0  0
 10 11  2  0  0  0  0
 11 12  1  0  0  0  0
 12 13  1  0  0  0  0
 13 14  1  0  0  0  0
 13 15  1  0  0  0  0
 13 16  1  0  0  0  0
 16 17  2  0  0  0  0
 17 18  1  0  0  0  0
 18 19  2  0  0  0  0
 19 20  1  0  0  0  0
 20 21  1  0  0  0  0
 12 22  2  0  0  0  0
 22 23  1  0  0  0  0
 23 24  2  0  0  0  0
 24 25  1  0  0  0  0
 25 26  3  0  0  0  0
  8 27  2  0  0  0  0
  3 28  1  0  0  0  0
 28 29  1  0  0  0  0
 29 30  1  0  0  0  0
 30 31  1  0  0  0  0
 31 32  1  0  0  0  0
 32 33  1  0  0  0  0
 32 34  1  0  0  0  0
 34 35  2  0  0  0  0
 34  3  1  0  0  0  0
 27  4  1  0  0  0  0
 24 10  1  0  0  0  0
 20 16  1  0  0  0  0
  1 36  1  0  0  0  0
  1 37  1  0  0  0  0
  1 38  1  0  0  0  0
  2 39  1  0  0  0  0
  2 40  1  0  0  0  0
  5 41  1  0  0  0  0
  6 42  1  0  0  0  0
  7 43  1  0  0  0  0
 11 44  1  0  0  0  0
 14 45  1  0  0  0  0
 14 46  1  0  0  0  0
 14 47  1  0  0  0  0
 15 48  1  0  0  0  0
 15 49  1  0  0  0  0
 15 50  1  0  0  0  0
 17 51  1  0  0  0  0
 19 52  1  0  0  0  0
 21 53  1  0  0  0  0
 21 54  1  0  0  0  0
 21 55  1  0  0  0  0
 22 56  1  0  0  0  0
 23 57  1  0  0  0  0
 27 58  1  0  0  0  0
 28 59  1  0  0  0  0
 28 60  1  0  0  0  0
 29 61  1  0  0  0  0
 29 62  1  0  0  0  0
 30 63  1  0  0  0  0
 30 64  1  0  0  0  0
 31 65  1  0  0  0  0
 31 66  1  0  0  0  0
 33 67  1  0  0  0  0
 33 68  1  0  0  0  0
 33 69  1  0  0  0  0
M  CHG  1  15   1
M  END
> <BIOSOLVEIT.HYDE_ESTIMATED_AFFINITY_LOWER_BOUNDARY [nM]>
65993786708.213577

> <BIOSOLVEIT.HYDE_ESTIMATED_AFFINITY_UPPER_BOUNDARY [nM]>
6556872895607.819336

> <BIOSOLVEIT.HYDE_LIGAND_EFFICIENCY range: ++, +, 0, -, -->
--

> <BIOSOLVEIT.HYDE_LIGAND_LIPOPHILIC_EFFICIENCY range: ++, +, 0, -, -->
--

> <BIOSOLVEIT.INTER_CLASH range: red, yellow, green>
green

> <BIOSOLVEIT.INTRA_CLASH range: red, yellow, green>
yellow

> <BIOSOLVEIT.LOGP>
3.87958

> <BIOSOLVEIT.MOLECULAR WEIGHT>
472.61

> <BIOSOLVEIT.MOLECULE_CHECKSUM>
MTYuMDg1Nzsw

> <BIOSOLVEIT.TORSION_QUALITY range: red, yellow, green, not rotatable>
green

> <BIOSOLVEIT.TPSA>
98.79

$$$$
1MZC_BNE_2
foHydescor03192112153D 1   1.00000     0.00000     0
Hydescorer 1.1.0 fol007
 69 72  0  0  0  0            999 V2000
   13.9612  -74.3709    3.0773 C   0  0  0  0  0  0  0  0  0  0  0  0
   13.6822  -72.8871    3.3528 C   0  0  0  0  0  0  0  0  0  0  0  0
   14.7851  -72.1460    4.0929 C   0  0  2  0  0  0  0  0  0  0  0  0
   14.3048  -70.7243    4.3313 C   0  0  0  0  0  0  0  0  0  0  0  0
   14.5371  -70.1089    5.5570 C   0  0  0  0  0  0  0  0  0  0  0  0
   14.0883  -68.8069    5.7533 C   0  0  0  0  0  0  0  0  0  0  0  0
   13.4163  -68.1211    4.7468 C   0  0  0  0  0  0  0  0  0  0  0  0
   13.1944  -68.7554    3.5288 C   0  0  0  0  0  0  0  0  0  0  0  0
   12.5168  -68.0709    2.5084 O   0  0  0  0  0  0  0  0  0  0  0  0
   13.1279  -67.4399    1.4832 C   0  0  0  0  0  0  0  0  0  0  0  0
   13.7739  -68.2054    0.5182 C   0  0  0  0  0  0  0  0  0  0  0  0
   14.4059  -67.5621   -0.5408 C   0  0  0  0  0  0  0  0  0  0  0  0
   15.1235  -68.3983   -1.6136 C   0  0  2  0  0  0  0  0  0  0  0  0
   16.2613  -67.5206   -2.1862 C   0  0  0  0  0  0  0  0  0  0  0  0
   14.2240  -68.7749   -2.7243 N   0  3  0  0  0  0  0  0  0  0  0  0
   15.6825  -69.6860   -0.9874 C   0  0  0  0  0  0  0  0  0  0  0  0
   15.0826  -70.9107   -1.0106 C   0  0  0  0  0  0  0  0  0  0  0  0
   15.9083  -71.7700   -0.3482 N   0  0  0  0  0  0  0  0  0  0  0  0
   16.9659  -71.1040    0.0633 C   0  0  0  0  0  0  0  0  0  0  0  0
   16.8624  -69.8039   -0.3228 N   0  0  0  0  0  0  0  0  0  0  0  0
   17.8327  -68.7295   -0.0647 C   0  0  0  0  0  0  0  0  0  0  0  0
   14.3987  -66.1747   -0.6434 C   0  0  0  0  0  0  0  0  0  0  0  0
   13.7495  -65.4194    0.3275 C   0  0  0  0  0  0  0  0  0  0  0  0
   13.1139  -66.0521    1.3910 C   0  0  0  0  0  0  0  0  0  0  0  0
   12.4043  -65.2268    2.4521 C   0  0  0  0  0  0  0  0  0  0  0  0
   11.8652  -64.5993    3.2613 N   0  0  0  0  0  0  0  0  0  0  0  0
   13.6347  -70.0567    3.3113 C   0  0  0  0  0  0  0  0  0  0  0  0
   16.0326  -72.0263    3.2261 C   0  0  0  0  0  0  0  0  0  0  0  0
   16.9456  -73.2479    3.2522 C   0  0  0  0  0  0  0  0  0  0  0  0
   17.9697  -73.1405    4.3704 C   0  0  0  0  0  0  0  0  0  0  0  0
   17.3923  -72.2278    5.4405 C   0  0  0  0  0  0  0  0  0  0  0  0
   16.2372  -72.8541    6.1021 N   0  0  0  0  0  0  0  0  0  0  0  0
   16.4091  -73.5088    7.4090 C   0  0  0  0  0  0  0  0  0  0  0  0
   14.9927  -72.8046    5.4527 C   0  0  0  0  0  0  0  0  0  0  0  0
   14.0377  -73.3188    6.0065 O   0  0  0  0  0  0  0  0  0  0  0  0
   13.1851  -74.7711    2.5901 H   0  0  0  0  0  0  0  0  0  0  0  0
   14.7859  -74.4569    2.5183 H   0  0  0  0  0  0  0  0  0  0  0  0
   14.0944  -74.8516    3.9440 H   0  0  0  0  0  0  0  0  0  0  0  0
   12.8475  -72.8259    3.9000 H   0  0  0  0  0  0  0  0  0  0  0  0
   13.5390  -72.4312    2.4743 H   0  0  0  0  0  0  0  0  0  0  0  0
   15.0193  -70.5949    6.2859 H   0  0  0  0  0  0  0  0  0  0  0  0
   14.2512  -68.3570    6.6314 H   0  0  0  0  0  0  0  0  0  0  0  0
   13.0972  -67.1853    4.8967 H   0  0  0  0  0  0  0  0  0  0  0  0
   13.7838  -69.2032    0.5847 H   0  0  0  0  0  0  0  0  0  0  0  0
   16.7542  -68.0315   -2.8905 H   0  0  0  0  0  0  0  0  0  0  0  0
   15.8728  -66.6908   -2.5867 H   0  0  0  0  0  0  0  0  0  0  0  0
   16.8926  -67.2721   -1.4514 H   0  0  0  0  0  0  0  0  0  0  0  0
   14.2178  -68.0468   -3.4097 H   0  0  0  0  0  0  0  0  0  0  0  0
   14.5479  -69.6237   -3.1424 H   0  0  0  0  0  0  0  0  0  0  0  0
   13.2977  -68.9091   -2.3722 H   0  0  0  0  0  0  0  0  0  0  0  0
   14.2045  -71.1355   -1.4330 H   0  0  0  0  0  0  0  0  0  0  0  0
   17.7281  -71.4936    0.5803 H   0  0  0  0  0  0  0  0  0  0  0  0
   17.4987  -67.8756   -0.4638 H   0  0  0  0  0  0  0  0  0  0  0  0
   17.9473  -68.6139    0.9220 H   0  0  0  0  0  0  0  0  0  0  0  0
   18.7120  -68.9684   -0.4766 H   0  0  0  0  0  0  0  0  0  0  0  0
   14.8568  -65.7238   -1.4094 H   0  0  0  0  0  0  0  0  0  0  0  0
   13.7397  -64.4217    0.2611 H   0  0  0  0  0  0  0  0  0  0  0  0
   13.4715  -70.5064    2.4331 H   0  0  0  0  0  0  0  0  0  0  0  0
   16.5584  -71.2374    3.5441 H   0  0  0  0  0  0  0  0  0  0  0  0
   15.7423  -71.8744    2.2813 H   0  0  0  0  0  0  0  0  0  0  0  0
   17.4238  -73.3173    2.3767 H   0  0  0  0  0  0  0  0  0  0  0  0
   16.3907  -74.0675    3.3949 H   0  0  0  0  0  0  0  0  0  0  0  0
   18.8212  -72.7539    4.0163 H   0  0  0  0  0  0  0  0  0  0  0  0
   18.1494  -74.0457    4.7555 H   0  0  0  0  0  0  0  0  0  0  0  0
   17.1007  -71.3704    5.0163 H   0  0  0  0  0  0  0  0  0  0  0  0
   18.0974  -72.0387    6.1240 H   0  0  0  0  0  0  0  0  0  0  0  0
   15.5319  -73.8794    7.7141 H   0  0  0  0  0  0  0  0  0  0  0  0
   17.0736  -74.2513    7.3249 H   0  0  0  0  0  0  0  0  0  0  0  0
   16.7387  -72.8404    8.0758 H   0  0  0  0  0  0  0  0  0  0  0  0
  1  2  1  0  0  0  0
  2  3  1  0  0  0  0
  3  4  1  0  0  0  0
  4  5  2  0  0  0  0
  5  6  1  0  0  0  0
  6  7  2  0  0  0  0
  7  8  1  0  0  0  0
  8  9  1  0  0  0  0
  9 10  1  0  0  0  0
 10 11  2  0  0  0  0
 11 12  1  0  0  0  0
 12 13  1  0  0  0  0
 13 14  1  0  0  0  0
 13 15  1  0  0  0  0
 13 16  1  0  0  0  0
 16 17  2  0  0  0  0
 17 18  1  0  0  0  0
 18 19  2  0  0  0  0
 19 20  1  0  0  0  0
 20 21  1  0  0  0  0
 12 22  2  0  0  0  0
 22 23  1  0  0  0  0
 23 24  2  0  0  0  0
 24 25  1  0  0  0  0
 25 26  3  0  0  0  0
  8 27  2  0  0  0  0
  3 28  1  0  0  0  0
 28 29  1  0  0  0  0
 29 30  1  0  0  0  0
 30 31  1  0  0  0  0
 31 32  1  0  0  0  0
 32 33  1  0  0  0  0
 32 34  1  0  0  0  0
 34 35  2  0  0  0  0
 34  3  1  0  0  0  0
 27  4  1  0  0  0  0
 24 10  1  0  0  0  0
 20 16  1  0  0  0  0
  1 36  1  0  0  0  0
  1 37  1  0  0  0  0
  1 38  1  0  0  0  0
  2 39  1  0  0  0  0
  2 40  1  0  0  0  0
  5 41  1  0  0  0  0
  6 42  1  0  0  0  0
  7 43  1  0  0  0  0
 11 44  1  0  0  0  0
 14 45  1  0  0  0  0
 14 46  1  0  0  0  0
 14 47  1  0  0  0  0
 15 48  1  0  0  0  0
 15 49  1  0  0  0  0
 15 50  1  0  0  0  0
 17 51  1  0  0  0  0
 19 52  1  0  0  0  0
 21 53  1  0  0  0  0
 21 54  1  0  0  0  0
 21 55  1  0  0  0  0
 22 56  1  0  0  0  0
 23 57  1  0  0  0  0
 27 58  1  0  0  0  0
 28 59  1  0  0  0  0
 28 60  1  0  0  0  0
 29 61  1  0  0  0  0
 29 62  1  0  0  0  0
 30 63  1  0  0  0  0
 30 64  1  0  0  0  0
 31 65  1  0  0  0  0
 31 66  1  0  0  0  0
 33 67  1  0  0  0  0
 33 68  1  0  0  0  0
 33 69  1  0  0  0  0
M  CHG  1  15   1
M  END
> <BIOSOLVEIT.HYDE_ESTIMATED_AFFINITY_LOWER_BOUNDARY [nM]>
16230596984.920162

> <BIOSOLVEIT.HYDE_ESTIMATED_AFFINITY_UPPER_BOUNDARY [nM]>
1612605773335.807617

> <BIOSOLVEIT.HYDE_LIGAND_EFFICIENCY range: ++, +, 0, -, -->
--

> <BIOSOLVEIT.HYDE_LIGAND_LIPOPHILIC_EFFICIENCY range: ++, +, 0, -, -->
--

> <BIOSOLVEIT.INTER_CLASH range: red, yellow, green>
green

> <BIOSOLVEIT.INTRA_CLASH range: red, yellow, green>
yellow

> <BIOSOLVEIT.LOGP>
3.87958

> <BIOSOLVEIT.MOLECULAR WEIGHT>
472.61

> <BIOSOLVEIT.MOLECULE_CHECKSUM>
MTIuNjA4Njsw

> <BIOSOLVEIT.TORSION_QUALITY range: red, yellow, green, not rotatable>
green

> <BIOSOLVEIT.TPSA>
98.79

$$$$
1MZC_BNE_3
foHydescor03192112153D 1   1.00000     0.00000     0
Hydescorer 1.1.0 fol007
 69 72  0  0  0  0            999 V2000
   17.3963  -72.8743    3.0054 C   0  0  0  0  0  0  0  0  0  0  0  0
   16.5597  -71.6436    3.3806 C   0  0  0  0  0  0  0  0  0  0  0  0
   15.2082  -71.9450    4.0100 C   0  0  2  0  0  0  0  0  0  0  0  0
   14.5222  -70.6175    4.2853 C   0  0  0  0  0  0  0  0  0  0  0  0
   14.5698  -70.0619    5.5597 C   0  0  0  0  0  0  0  0  0  0  0  0
   13.9344  -68.8457    5.7889 C   0  0  0  0  0  0  0  0  0  0  0  0
   13.2588  -68.1864    4.7674 C   0  0  0  0  0  0  0  0  0  0  0  0
   13.2233  -68.7598    3.5005 C   0  0  0  0  0  0  0  0  0  0  0  0
   12.5435  -68.1016    2.4645 O   0  0  0  0  0  0  0  0  0  0  0  0
   13.1530  -67.4401    1.4578 C   0  0  0  0  0  0  0  0  0  0  0  0
   13.8087  -68.1759    0.4763 C   0  0  0  0  0  0  0  0  0  0  0  0
   14.4392  -67.5011   -0.5639 C   0  0  0  0  0  0  0  0  0  0  0  0
   15.1674  -68.3044   -1.6545 C   0  0  2  0  0  0  0  0  0  0  0  0
   16.2219  -67.3630   -2.2826 C   0  0  0  0  0  0  0  0  0  0  0  0
   14.2517  -68.7547   -2.7237 N   0  3  0  0  0  0  0  0  0  0  0  0
   15.8338  -69.5437   -1.0359 C   0  0  0  0  0  0  0  0  0  0  0  0
   15.3302  -70.8113   -1.0490 C   0  0  0  0  0  0  0  0  0  0  0  0
   16.2297  -71.6029   -0.3986 N   0  0  0  0  0  0  0  0  0  0  0  0
   17.2387  -70.8563   -0.0040 C   0  0  0  0  0  0  0  0  0  0  0  0
   17.0292  -69.5688   -0.3895 N   0  0  0  0  0  0  0  0  0  0  0  0
   17.9174  -68.4222   -0.1471 C   0  0  0  0  0  0  0  0  0  0  0  0
   14.4209  -66.1117   -0.6317 C   0  0  0  0  0  0  0  0  0  0  0  0
   13.7622  -65.3863    0.3554 C   0  0  0  0  0  0  0  0  0  0  0  0
   13.1279  -66.0505    1.4003 C   0  0  0  0  0  0  0  0  0  0  0  0
   12.4078  -65.2579    2.4790 C   0  0  0  0  0  0  0  0  0  0  0  0
   11.8606  -64.6552    3.3016 N   0  0  0  0  0  0  0  0  0  0  0  0
   13.8518  -69.9749    3.2493 C   0  0  0  0  0  0  0  0  0  0  0  0
   15.3807  -72.6161    5.3670 C   0  0  0  0  0  0  0  0  0  0  0  0
   15.6003  -74.1244    5.3081 C   0  0  0  0  0  0  0  0  0  0  0  0
   14.2764  -74.8707    5.3441 C   0  0  0  0  0  0  0  0  0  0  0  0
   13.2035  -73.9358    4.8091 C   0  0  0  0  0  0  0  0  0  0  0  0
   13.4006  -73.6706    3.3755 N   0  0  0  0  0  0  0  0  0  0  0  0
   12.6036  -74.4044    2.3796 C   0  0  0  0  0  0  0  0  0  0  0  0
   14.3574  -72.7120    3.0030 C   0  0  0  0  0  0  0  0  0  0  0  0
   14.5133  -72.4909    1.8156 O   0  0  0  0  0  0  0  0  0  0  0  0
   18.2619  -72.5784    2.6013 H   0  0  0  0  0  0  0  0  0  0  0  0
   17.5794  -73.4157    3.8260 H   0  0  0  0  0  0  0  0  0  0  0  0
   16.8928  -73.4307    2.3444 H   0  0  0  0  0  0  0  0  0  0  0  0
   16.4016  -71.1119    2.5486 H   0  0  0  0  0  0  0  0  0  0  0  0
   17.0882  -71.0968    4.0301 H   0  0  0  0  0  0  0  0  0  0  0  0
   15.0533  -70.5295    6.2996 H   0  0  0  0  0  0  0  0  0  0  0  0
   13.9640  -68.4393    6.7021 H   0  0  0  0  0  0  0  0  0  0  0  0
   12.8049  -67.3125    4.9413 H   0  0  0  0  0  0  0  0  0  0  0  0
   13.8266  -69.1749    0.5179 H   0  0  0  0  0  0  0  0  0  0  0  0
   16.7191  -67.8509   -3.0000 H   0  0  0  0  0  0  0  0  0  0  0  0
   15.7644  -66.5660   -2.6772 H   0  0  0  0  0  0  0  0  0  0  0  0
   16.8637  -67.0634   -1.5768 H   0  0  0  0  0  0  0  0  0  0  0  0
   14.1771  -68.0417   -3.4209 H   0  0  0  0  0  0  0  0  0  0  0  0
   14.6098  -69.5909   -3.1391 H   0  0  0  0  0  0  0  0  0  0  0  0
   13.3486  -68.9362   -2.3346 H   0  0  0  0  0  0  0  0  0  0  0  0
   14.4658  -71.1042   -1.4579 H   0  0  0  0  0  0  0  0  0  0  0  0
   18.0366  -71.1847    0.5014 H   0  0  0  0  0  0  0  0  0  0  0  0
   17.5122  -67.5974   -0.5416 H   0  0  0  0  0  0  0  0  0  0  0  0
   18.0377  -68.2962    0.8376 H   0  0  0  0  0  0  0  0  0  0  0  0
   18.8062  -68.5933   -0.5723 H   0  0  0  0  0  0  0  0  0  0  0  0
   14.8780  -65.6381   -1.3846 H   0  0  0  0  0  0  0  0  0  0  0  0
   13.7446  -64.3874    0.3140 H   0  0  0  0  0  0  0  0  0  0  0  0
   13.8222  -70.3812    2.3361 H   0  0  0  0  0  0  0  0  0  0  0  0
   14.5577  -72.4420    5.9077 H   0  0  0  0  0  0  0  0  0  0  0  0
   16.1709  -72.2038    5.8204 H   0  0  0  0  0  0  0  0  0  0  0  0
   16.1549  -74.4048    6.0915 H   0  0  0  0  0  0  0  0  0  0  0  0
   16.0807  -74.3519    4.4611 H   0  0  0  0  0  0  0  0  0  0  0  0
   14.0600  -75.1349    6.2839 H   0  0  0  0  0  0  0  0  0  0  0  0
   14.3311  -75.6889    4.7719 H   0  0  0  0  0  0  0  0  0  0  0  0
   13.2441  -73.0712    5.3100 H   0  0  0  0  0  0  0  0  0  0  0  0
   12.3066  -74.3569    4.9433 H   0  0  0  0  0  0  0  0  0  0  0  0
   12.8611  -74.1055    1.4607 H   0  0  0  0  0  0  0  0  0  0  0  0
   12.7761  -75.3851    2.4716 H   0  0  0  0  0  0  0  0  0  0  0  0
   11.6321  -74.2213    2.5296 H   0  0  0  0  0  0  0  0  0  0  0  0
  1  2  1  0  0  0  0
  2  3  1  0  0  0  0
  3  4  1  0  0  0  0
  4  5  2  0  0  0  0
  5  6  1  0  0  0  0
  6  7  2  0  0  0  0
  7  8  1  0  0  0  0
  8  9  1  0  0  0  0
  9 10  1  0  0  0  0
 10 11  2  0  0  0  0
 11 12  1  0  0  0  0
 12 13  1  0  0  0  0
 13 14  1  0  0  0  0
 13 15  1  0  0  0  0
 13 16  1  0  0  0  0
 16 17  2  0  0  0  0
 17 18  1  0  0  0  0
 18 19  2  0  0  0  0
 19 20  1  0  0  0  0
 20 21  1  0  0  0  0
 12 22  2  0  0  0  0
 22 23  1  0  0  0  0
 23 24  2  0  0  0  0
 24 25  1  0  0  0  0
 25 26  3  0  0  0  0
  8 27  2  0  0  0  0
  3 28  1  0  0  0  0
 28 29  1  0  0  0  0
 29 30  1  0  0  0  0
 30 31  1  0  0  0  0
 31 32  1  0  0  0  0
 32 33  1  0  0  0  0
 32 34  1  0  0  0  0
 34 35  2  0  0  0  0
 34  3  1  0  0  0  0
 27  4  1  0  0  0  0
 24 10  1  0  0  0  0
 20 16  1  0  0  0  0
  1 36  1  0  0  0  0
  1 37  1  0  0  0  0
  1 38  1  0  0  0  0
  2 39  1  0  0  0  0
  2 40  1  0  0  0  0
  5 41  1  0  0  0  0
  6 42  1  0  0  0  0
  7 43  1  0  0  0  0
 11 44  1  0  0  0  0
 14 45  1  0  0  0  0
 14 46  1  0  0  0  0
 14 47  1  0  0  0  0
 15 48  1  0  0  0  0
 15 49  1  0  0  0  0
 15 50  1  0  0  0  0
 17 51  1  0  0  0  0
 19 52  1  0  0  0  0
 21 53  1  0  0  0  0
 21 54  1  0  0  0  0
 21 55  1  0  0  0  0
 22 56  1  0  0  0  0
 23 57  1  0  0  0  0
 27 58  1  0  0  0  0
 28 59  1  0  0  0  0
 28 60  1  0  0  0  0
 29 61  1  0  0  0  0
 29 62  1  0  0  0  0
 30 63  1  0  0  0  0
 30 64  1  0  0  0  0
 31 65  1  0  0  0  0
 31 66  1  0  0  0  0
 33 67  1  0  0  0  0
 33 68  1  0  0  0  0
 33 69  1  0  0  0  0
M  CHG  1  15   1
M  END
> <BIOSOLVEIT.HYDE_ESTIMATED_AFFINITY_LOWER_BOUNDARY [nM]>
23904713113.801739

> <BIOSOLVEIT.HYDE_ESTIMATED_AFFINITY_UPPER_BOUNDARY [nM]>
2375074583705.616211

> <BIOSOLVEIT.HYDE_LIGAND_EFFICIENCY range: ++, +, 0, -, -->
--

> <BIOSOLVEIT.HYDE_LIGAND_LIPOPHILIC_EFFICIENCY range: ++, +, 0, -, -->
--

> <BIOSOLVEIT.INTER_CLASH range: red, yellow, green>
green

> <BIOSOLVEIT.INTRA_CLASH range: red, yellow, green>
yellow

> <BIOSOLVEIT.LOGP>
3.87958

> <BIOSOLVEIT.MOLECULAR WEIGHT>
472.61

> <BIOSOLVEIT.MOLECULE_CHECKSUM>
MTMuNTY4NDsw

> <BIOSOLVEIT.TORSION_QUALITY range: red, yellow, green, not rotatable>
green

> <BIOSOLVEIT.TPSA>
98.79

$$$$
1LD7_U66_1
foHydescor03192112153D 1   1.00000     0.00000     0
Hydescorer 1.1.0 fol007
 62 67  0  0  0  0            999 V2000
   17.9112  -70.0441    4.7963 N   0  0  0  0  0  0  0  0  0  0  0  0
   18.2709  -70.7164    3.9254 C   0  0  0  0  0  0  0  0  0  0  0  0
   18.7346  -71.5759    2.8172 C   0  0  1  0  0  0  0  0  0  0  0  0
   20.0731  -72.2300    3.1980 C   0  0  0  0  0  0  0  0  0  0  0  0
   19.9039  -73.2684    4.2823 C   0  0  0  0  0  0  0  0  0  0  0  0
   18.7492  -73.9467    4.4695 C   0  0  0  0  0  0  0  0  0  0  0  0
   17.5071  -73.6546    3.6508 C   0  0  0  0  0  0  0  0  0  0  0  0
   17.7287  -72.6961    2.4670 C   0  0  1  0  0  0  0  0  0  0  0  0
   16.4881  -72.2060    1.9269 O   0  0  0  0  0  0  0  0  0  0  0  0
   15.5951  -71.3627    2.6018 C   0  0  0  0  0  0  0  0  0  0  0  0
   15.6385  -69.9888    2.3568 C   0  0  0  0  0  0  0  0  0  0  0  0
   14.8014  -69.1216    3.0558 C   0  0  0  0  0  0  0  0  0  0  0  0
   13.9059  -69.6202    4.0132 C   0  0  0  0  0  0  0  0  0  0  0  0
   13.0917  -68.7338    4.7296 C   0  0  0  0  0  0  0  0  0  0  0  0
   12.2050  -69.2149    5.6881 C   0  0  0  0  0  0  0  0  0  0  0  0
   12.1183  -70.5821    5.9423 C   0  0  0  0  0  0  0  0  0  0  0  0
   12.9133  -71.5023    5.2363 C   0  0  0  0  0  0  0  0  0  0  0  0
   13.8223  -71.0196    4.2531 C   0  0  0  0  0  0  0  0  0  0  0  0
   14.6448  -71.8822    3.4963 C   0  0  0  0  0  0  0  0  0  0  0  0
   12.7967  -72.9054    5.5505 N   0  0  0  0  0  0  0  0  0  0  0  0
   11.5380  -73.6267    5.6941 C   0  0  0  0  0  0  0  0  0  0  0  0
   11.8701  -74.8836    6.5202 C   0  0  0  0  0  0  0  0  0  0  0  0
   13.3882  -75.1077    6.3703 C   0  0  1  0  0  0  0  0  0  0  0  0
   13.6464  -76.0834    5.2855 N   0  3  0  0  0  0  0  0  0  0  0  0
   15.0503  -76.1758    4.8502 C   0  0  0  0  0  0  0  0  0  0  0  0
   15.9922  -76.7172    5.9363 C   0  0  0  0  0  0  0  0  0  0  0  0
   17.3260  -77.0806    5.3332 C   0  0  0  0  0  0  0  0  0  0  0  0
   17.6128  -78.2906    4.7371 C   0  0  0  0  0  0  0  0  0  0  0  0
   18.8577  -78.2555    4.2221 N   0  0  0  0  0  0  0  0  0  0  0  0
   19.3051  -77.0149    4.5074 C   0  0  0  0  0  0  0  0  0  0  0  0
   18.3960  -76.2707    5.1699 N   0  0  0  0  0  0  0  0  0  0  0  0
   18.6087  -74.8992    5.6374 C   0  0  0  0  0  0  0  0  0  0  0  0
   13.8445  -73.7304    6.0315 C   0  0  0  0  0  0  0  0  0  0  0  0
   15.0070  -73.3012    6.2602 O   0  0  0  0  0  0  0  0  0  0  0  0
   18.8750  -71.0065    2.0072 H   0  0  0  0  0  0  0  0  0  0  0  0
   20.6983  -71.5210    3.5240 H   0  0  0  0  0  0  0  0  0  0  0  0
   20.4605  -72.6691    2.3874 H   0  0  0  0  0  0  0  0  0  0  0  0
   20.6772  -73.4620    4.8860 H   0  0  0  0  0  0  0  0  0  0  0  0
   16.8229  -73.2486    4.2566 H   0  0  0  0  0  0  0  0  0  0  0  0
   17.1610  -74.5206    3.2900 H   0  0  0  0  0  0  0  0  0  0  0  0
   18.1545  -73.2387    1.7430 H   0  0  0  0  0  0  0  0  0  0  0  0
   16.2741  -69.6250    1.6759 H   0  0  0  0  0  0  0  0  0  0  0  0
   14.8392  -68.1390    2.8739 H   0  0  0  0  0  0  0  0  0  0  0  0
   13.1478  -67.7513    4.5517 H   0  0  0  0  0  0  0  0  0  0  0  0
   11.6274  -68.5765    6.1968 H   0  0  0  0  0  0  0  0  0  0  0  0
   11.4808  -70.9142    6.6375 H   0  0  0  0  0  0  0  0  0  0  0  0
   14.5500  -72.8725    3.5982 H   0  0  0  0  0  0  0  0  0  0  0  0
   11.1792  -73.8839    4.7968 H   0  0  0  0  0  0  0  0  0  0  0  0
   10.8653  -73.0624    6.1728 H   0  0  0  0  0  0  0  0  0  0  0  0
   11.3668  -75.6728    6.1684 H   0  0  0  0  0  0  0  0  0  0  0  0
   11.6342  -74.7391    7.4812 H   0  0  0  0  0  0  0  0  0  0  0  0
   13.7910  -75.4161    7.2320 H   0  0  0  0  0  0  0  0  0  0  0  0
   13.0934  -75.8211    4.4947 H   0  0  0  0  0  0  0  0  0  0  0  0
   13.3615  -76.9865    5.6067 H   0  0  0  0  0  0  0  0  0  0  0  0
   15.3614  -75.2624    4.5875 H   0  0  0  0  0  0  0  0  0  0  0  0
   15.0971  -76.7844    4.0581 H   0  0  0  0  0  0  0  0  0  0  0  0
   15.5848  -77.5304    6.3518 H   0  0  0  0  0  0  0  0  0  0  0  0
   16.1261  -76.0164    6.6370 H   0  0  0  0  0  0  0  0  0  0  0  0
   16.9924  -79.0737    4.6936 H   0  0  0  0  0  0  0  0  0  0  0  0
   20.2138  -76.6827    4.2546 H   0  0  0  0  0  0  0  0  0  0  0  0
   19.4424  -74.8667    6.1886 H   0  0  0  0  0  0  0  0  0  0  0  0
   17.8284  -74.6190    6.1965 H   0  0  0  0  0  0  0  0  0  0  0  0
  1  2  3  0  0  0  0
  2  3  1  0  0  0  0
  3  4  1  0  0  0  0
  4  5  1  0  0  0  0
  5  6  2  0  0  0  0
  6  7  1  0  0  0  0
  7  8  1  0  0  0  0
  8  9  1  0  0  0  0
  9 10  1  0  0  0  0
 10 11  2  0  0  0  0
 11 12  1  0  0  0  0
 12 13  2  0  0  0  0
 13 14  1  0  0  0  0
 14 15  2  0  0  0  0
 15 16  1  0  0  0  0
 16 17  2  0  0  0  0
 17 18  1  0  0  0  0
 18 19  2  0  0  0  0
 17 20  1  0  0  0  0
 20 21  1  0  0  0  0
 21 22  1  0  0  0  0
 22 23  1  0  0  0  0
 23 24  1  0  0  0  0
 24 25  1  0  0  0  0
 25 26  1  0  0  0  0
 26 27  1  0  0  0  0
 27 28  2  0  0  0  0
 28 29  1  0  0  0  0
 29 30  2  0  0  0  0
 30 31  1  0  0  0  0
 31 32  1  0  0  0  0
 23 33  1  0  0  0  0
 33 34  2  0  0  0  0
  8  3  1  0  0  0  0
 19 10  1  0  0  0  0
 33 20  1  0  0  0  0
 32  6  1  0  0  0  0
 18 13  1  0  0  0  0
 31 27  1  0  0  0  0
  3 35  1  0  0  0  0
  4 36  1  0  0  0  0
  4 37  1  0  0  0  0
  5 38  1  0  0  0  0
  7 39  1  0  0  0  0
  7 40  1  0  0  0  0
  8 41  1  0  0  0  0
 11 42  1  0  0  0  0
 12 43  1  0  0  0  0
 14 44  1  0  0  0  0
 15 45  1  0  0  0  0
 16 46  1  0  0  0  0
 19 47  1  0  0  0  0
 21 48  1  0  0  0  0
 21 49  1  0  0  0  0
 22 50  1  0  0  0  0
 22 51  1  0  0  0  0
 23 52  1  0  0  0  0
 24 53  1  0  0  0  0
 24 54  1  0  0  0  0
 25 55  1  0  0  0  0
 25 56  1  0  0  0  0
 26 57  1  0  0  0  0
 26 58  1  0  0  0  0
 28 59  1  0  0  0  0
 30 60  1  0  0  0  0
 32 61  1  0  0  0  0
 32 62  1  0  0  0  0
M  CHG  1  24   1
M  END
> <BIOSOLVEIT.HYDE_ESTIMATED_AFFINITY_LOWER_BOUNDARY [nM]>
127.547752

> <BIOSOLVEIT.HYDE_ESTIMATED_AFFINITY_UPPER_BOUNDARY [nM]>
12672.623306

> <BIOSOLVEIT.HYDE_LIGAND_EFFICIENCY range: ++, +, 0, -, -->
-

> <BIOSOLVEIT.HYDE_LIGAND_LIPOPHILIC_EFFICIENCY range: ++, +, 0, -, -->
-

> <BIOSOLVEIT.INTER_CLASH range: red, yellow, green>
green

> <BIOSOLVEIT.INTRA_CLASH range: red, yellow, green>
green

> <BIOSOLVEIT.LOGP>
2.56868

> <BIOSOLVEIT.MOLECULAR WEIGHT>
454.551

> <BIOSOLVEIT.MOLECULE_CHECKSUM>
LTMzLjY1Mjk7MC45ODk3OTE=

> <BIOSOLVEIT.TORSION_QUALITY range: red, yellow, green, not rotatable>
not rotatable

> <BIOSOLVEIT.TPSA>
87.76

$$$$
1LD7_U66_2
foHydescor03192112153D 1   1.00000     0.00000     0
Hydescorer 1.1.0 fol007
 62 67  0  0  0  0            999 V2000
   19.3907  -68.5206    2.5746 N   0  0  0  0  0  0  0  0  0  0  0  0
   18.9810  -69.2860    3.3401 C   0  0  0  0  0  0  0  0  0  0  0  0
   18.4580  -70.2586    4.3212 C   0  0  1  0  0  0  0  0  0  0  0  0
   18.2935  -69.5737    5.6880 C   0  0  0  0  0  0  0  0  0  0  0  0
   17.1624  -68.5720    5.6832 C   0  0  0  0  0  0  0  0  0  0  0  0
   16.1004  -68.6745    4.8525 C   0  0  0  0  0  0  0  0  0  0  0  0
   16.0064  -69.7647    3.8034 C   0  0  0  0  0  0  0  0  0  0  0  0
   17.0918  -70.8512    3.9070 C   0  0  1  0  0  0  0  0  0  0  0  0
   17.1548  -71.6688    2.7243 O   0  0  0  0  0  0  0  0  0  0  0  0
   17.5513  -71.2201    1.4573 C   0  0  0  0  0  0  0  0  0  0  0  0
   18.8664  -71.4341    1.0396 C   0  0  0  0  0  0  0  0  0  0  0  0
   19.3026  -70.9484   -0.1912 C   0  0  0  0  0  0  0  0  0  0  0  0
   18.4248  -70.2391   -1.0239 C   0  0  0  0  0  0  0  0  0  0  0  0
   18.8853  -69.7306   -2.2451 C   0  0  0  0  0  0  0  0  0  0  0  0
   18.0267  -69.0182   -3.0766 C   0  0  0  0  0  0  0  0  0  0  0  0
   16.7015  -68.8055   -2.7026 C   0  0  0  0  0  0  0  0  0  0  0  0
   16.2018  -69.3088   -1.4885 C   0  0  0  0  0  0  0  0  0  0  0  0
   17.0721  -70.0399   -0.6319 C   0  0  0  0  0  0  0  0  0  0  0  0
   16.6406  -70.5852    0.5967 C   0  0  0  0  0  0  0  0  0  0  0  0
   14.8265  -69.0454   -1.1412 N   0  0  0  0  0  0  0  0  0  0  0  0
   13.6915  -69.2155   -2.0401 C   0  0  0  0  0  0  0  0  0  0  0  0
   12.5627  -68.3461   -1.4548 C   0  0  0  0  0  0  0  0  0  0  0  0
   12.9137  -68.1290    0.0308 C   0  0  1  0  0  0  0  0  0  0  0  0
   12.2070  -69.1294    0.8645 N   0  3  0  0  0  0  0  0  0  0  0  0
   12.6673  -69.2155    2.2608 C   0  0  0  0  0  0  0  0  0  0  0  0
   12.3958  -67.9401    3.0731 C   0  0  0  0  0  0  0  0  0  0  0  0
   12.5959  -68.2085    4.5438 C   0  0  0  0  0  0  0  0  0  0  0  0
   11.6339  -68.7300    5.3830 C   0  0  0  0  0  0  0  0  0  0  0  0
   12.1635  -68.9303    6.6060 N   0  0  0  0  0  0  0  0  0  0  0  0
   13.4476  -68.5339    6.4859 C   0  0  0  0  0  0  0  0  0  0  0  0
   13.7475  -68.1020    5.2438 N   0  0  0  0  0  0  0  0  0  0  0  0
   15.0512  -67.5838    4.8233 C   0  0  0  0  0  0  0  0  0  0  0  0
   14.3892  -68.3348    0.0050 C   0  0  0  0  0  0  0  0  0  0  0  0
   15.1820  -67.8292    0.8438 O   0  0  0  0  0  0  0  0  0  0  0  0
   19.1164  -71.0055    4.4141 H   0  0  0  0  0  0  0  0  0  0  0  0
   19.1439  -69.1000    5.9168 H   0  0  0  0  0  0  0  0  0  0  0  0
   18.1044  -70.2716    6.3788 H   0  0  0  0  0  0  0  0  0  0  0  0
   17.2006  -67.8021    6.3202 H   0  0  0  0  0  0  0  0  0  0  0  0
   16.0785  -69.3371    2.9023 H   0  0  0  0  0  0  0  0  0  0  0  0
   15.1137  -70.2066    3.8923 H   0  0  0  0  0  0  0  0  0  0  0  0
   16.8117  -71.4568    4.6517 H   0  0  0  0  0  0  0  0  0  0  0  0
   19.4987  -71.9388    1.6273 H   0  0  0  0  0  0  0  0  0  0  0  0
   20.2462  -71.1064   -0.4824 H   0  0  0  0  0  0  0  0  0  0  0  0
   19.8349  -69.8803   -2.5204 H   0  0  0  0  0  0  0  0  0  0  0  0
   18.3624  -68.6572   -3.9467 H   0  0  0  0  0  0  0  0  0  0  0  0
   16.0966  -68.2871   -3.3069 H   0  0  0  0  0  0  0  0  0  0  0  0
   15.6772  -70.5188    0.8568 H   0  0  0  0  0  0  0  0  0  0  0  0
   13.4121  -70.1752   -2.0711 H   0  0  0  0  0  0  0  0  0  0  0  0
   13.9271  -68.9070   -2.9617 H   0  0  0  0  0  0  0  0  0  0  0  0
   11.6840  -68.8162   -1.5384 H   0  0  0  0  0  0  0  0  0  0  0  0
   12.5179  -67.4685   -1.9323 H   0  0  0  0  0  0  0  0  0  0  0  0
   12.6874  -67.1987    0.3196 H   0  0  0  0  0  0  0  0  0  0  0  0
   12.3298  -70.0273    0.4418 H   0  0  0  0  0  0  0  0  0  0  0  0
   11.2349  -68.8948    0.8725 H   0  0  0  0  0  0  0  0  0  0  0  0
   13.6525  -69.3867    2.2598 H   0  0  0  0  0  0  0  0  0  0  0  0
   12.1967  -69.9790    2.7030 H   0  0  0  0  0  0  0  0  0  0  0  0
   11.4540  -67.6427    2.9165 H   0  0  0  0  0  0  0  0  0  0  0  0
   13.0256  -67.2210    2.7796 H   0  0  0  0  0  0  0  0  0  0  0  0
   10.6888  -68.9289    5.1240 H   0  0  0  0  0  0  0  0  0  0  0  0
   14.1066  -68.5577    7.2377 H   0  0  0  0  0  0  0  0  0  0  0  0
   15.3263  -66.8481    5.4421 H   0  0  0  0  0  0  0  0  0  0  0  0
   14.9766  -67.2260    3.8924 H   0  0  0  0  0  0  0  0  0  0  0  0
  1  2  3  0  0  0  0
  2  3  1  0  0  0  0
  3  4  1  0  0  0  0
  4  5  1  0  0  0  0
  5  6  2  0  0  0  0
  6  7  1  0  0  0  0
  7  8  1  0  0  0  0
  8  9  1  0  0  0  0
  9 10  1  0  0  0  0
 10 11  2  0  0  0  0
 11 12  1  0  0  0  0
 12 13  2  0  0  0  0
 13 14  1  0  0  0  0
 14 15  2  0  0  0  0
 15 16  1  0  0  0  0
 16 17  2  0  0  0  0
 17 18  1  0  0  0  0
 18 19  2  0  0  0  0
 17 20  1  0  0  0  0
 20 21  1  0  0  0  0
 21 22  1  0  0  0  0
 22 23  1  0  0  0  0
 23 24  1  0  0  0  0
 24 25  1  0  0  0  0
 25 26  1  0  0  0  0
 26 27  1  0  0  0  0
 27 28  2  0  0  0  0
 28 29  1  0  0  0  0
 29 30  2  0  0  0  0
 30 31  1  0  0  0  0
 31 32  1  0  0  0  0
 23 33  1  0  0  0  0
 33 34  2  0  0  0  0
  8  3  1  0  0  0  0
 19 10  1  0  0  0  0
 33 20  1  0  0  0  0
 32  6  1  0  0  0  0
 18 13  1  0  0  0  0
 31 27  1  0  0  0  0
  3 35  1  0  0  0  0
  4 36  1  0  0  0  0
  4 37  1  0  0  0  0
  5 38  1  0  0  0  0
  7 39  1  0  0  0  0
  7 40  1  0  0  0  0
  8 41  1  0  0  0  0
 11 42  1  0  0  0  0
 12 43  1  0  0  0  0
 14 44  1  0  0  0  0
 15 45  1  0  0  0  0
 16 46  1  0  0  0  0
 19 47  1  0  0  0  0
 21 48  1  0  0  0  0
 21 49  1  0  0  0  0
 22 50  1  0  0  0  0
 22 51  1  0  0  0  0
 23 52  1  0  0  0  0
 24 53  1  0  0  0  0
 24 54  1  0  0  0  0
 25 55  1  0  0  0  0
 25 56  1  0  0  0  0
 26 57  1  0  0  0  0
 26 58  1  0  0  0  0
 28 59  1  0  0  0  0
 30 60  1  0  0  0  0
 32 61  1  0  0  0  0
 32 62  1  0  0  0  0
M  CHG  1  24   1
M  END
> <BIOSOLVEIT.HYDE_ESTIMATED_AFFINITY_LOWER_BOUNDARY [nM]>
15732535836.717594

> <BIOSOLVEIT.HYDE_ESTIMATED_AFFINITY_UPPER_BOUNDARY [nM]>
1563120453491.321777

> <BIOSOLVEIT.HYDE_LIGAND_EFFICIENCY range: ++, +, 0, -, -->
--

> <BIOSOLVEIT.HYDE_LIGAND_LIPOPHILIC_EFFICIENCY range: ++, +, 0, -, -->
--

> <BIOSOLVEIT.INTER_CLASH range: red, yellow, green>
green

> <BIOSOLVEIT.INTRA_CLASH range: red, yellow, green>
green

> <BIOSOLVEIT.LOGP>
2.56868

> <BIOSOLVEIT.MOLECULAR WEIGHT>
454.551

> <BIOSOLVEIT.MOLECULE_CHECKSUM>
MTIuNTMxMzsw

> <BIOSOLVEIT.TORSION_QUALITY range: red, yellow, green, not rotatable>
not rotatable

> <BIOSOLVEIT.TPSA>
87.76

$$$$
1LD7_U66_3
foHydescor03192112153D 1   1.00000     0.00000     0
Hydescorer 1.1.0 fol007
 62 67  0  0  0  0            999 V2000
   16.2344  -65.7829    3.6142 N   0  0  0  0  0  0  0  0  0  0  0  0
   16.0525  -65.4164    2.5313 C   0  0  0  0  0  0  0  0  0  0  0  0
   15.8264  -64.9482    1.1488 C   0  0  1  0  0  0  0  0  0  0  0  0
   17.1758  -64.6190    0.4892 C   0  0  0  0  0  0  0  0  0  0  0  0
   17.9870  -65.8638    0.2151 C   0  0  0  0  0  0  0  0  0  0  0  0
   17.4200  -67.0747    0.0134 C   0  0  0  0  0  0  0  0  0  0  0  0
   15.9234  -67.2874    0.1282 C   0  0  0  0  0  0  0  0  0  0  0  0
   15.1002  -65.9949    0.2734 C   0  0  1  0  0  0  0  0  0  0  0  0
   13.7489  -66.2571    0.6934 O   0  0  0  0  0  0  0  0  0  0  0  0
   13.3821  -66.7769    1.9422 C   0  0  0  0  0  0  0  0  0  0  0  0
   12.9689  -65.9024    2.9491 C   0  0  0  0  0  0  0  0  0  0  0  0
   12.6533  -66.3864    4.2170 C   0  0  0  0  0  0  0  0  0  0  0  0
   12.7473  -67.7578    4.4949 C   0  0  0  0  0  0  0  0  0  0  0  0
   12.4558  -68.2266    5.7822 C   0  0  0  0  0  0  0  0  0  0  0  0
   12.5532  -69.5839    6.0731 C   0  0  0  0  0  0  0  0  0  0  0  0
   12.9399  -70.4884    5.0863 C   0  0  0  0  0  0  0  0  0  0  0  0
   13.2315  -70.0555    3.7808 C   0  0  0  0  0  0  0  0  0  0  0  0
   13.1334  -68.6692    3.4734 C   0  0  0  0  0  0  0  0  0  0  0  0
   13.3992  -68.1606    2.1835 C   0  0  0  0  0  0  0  0  0  0  0  0
   13.6439  -71.0312    2.8014 N   0  0  0  0  0  0  0  0  0  0  0  0
   12.9820  -72.3085    2.5659 C   0  0  0  0  0  0  0  0  0  0  0  0
   14.0270  -73.1959    1.8638 C   0  0  0  0  0  0  0  0  0  0  0  0
   15.0650  -72.2346    1.2508 C   0  0  1  0  0  0  0  0  0  0  0  0
   14.7305  -71.9740   -0.1688 N   0  3  0  0  0  0  0  0  0  0  0  0
   15.4699  -70.8624   -0.7905 C   0  0  0  0  0  0  0  0  0  0  0  0
   16.9794  -71.1227   -0.9075 C   0  0  0  0  0  0  0  0  0  0  0  0
   17.6126  -70.1051   -1.8231 C   0  0  0  0  0  0  0  0  0  0  0  0
   17.6710  -70.2159   -3.1964 C   0  0  0  0  0  0  0  0  0  0  0  0
   18.2172  -69.0986   -3.7158 N   0  0  0  0  0  0  0  0  0  0  0  0
   18.4740  -68.3199   -2.6443 C   0  0  0  0  0  0  0  0  0  0  0  0
   18.1076  -68.8947   -1.4803 N   0  0  0  0  0  0  0  0  0  0  0  0
   18.2898  -68.3022   -0.1534 C   0  0  0  0  0  0  0  0  0  0  0  0
   14.8859  -71.0360    2.1178 C   0  0  0  0  0  0  0  0  0  0  0  0
   15.7856  -70.1778    2.3216 O   0  0  0  0  0  0  0  0  0  0  0  0
   15.2728  -64.1160    1.1788 H   0  0  0  0  0  0  0  0  0  0  0  0
   17.6966  -64.0215    1.0989 H   0  0  0  0  0  0  0  0  0  0  0  0
   17.0063  -64.1467   -0.3758 H   0  0  0  0  0  0  0  0  0  0  0  0
   18.9836  -65.7893    0.1815 H   0  0  0  0  0  0  0  0  0  0  0  0
   15.7504  -67.8588    0.9304 H   0  0  0  0  0  0  0  0  0  0  0  0
   15.6125  -67.7642   -0.6940 H   0  0  0  0  0  0  0  0  0  0  0  0
   15.0369  -65.5987   -0.6425 H   0  0  0  0  0  0  0  0  0  0  0  0
   12.8992  -64.9231    2.7593 H   0  0  0  0  0  0  0  0  0  0  0  0
   12.3583  -65.7528    4.9323 H   0  0  0  0  0  0  0  0  0  0  0  0
   12.1765  -67.5833    6.4950 H   0  0  0  0  0  0  0  0  0  0  0  0
   12.3447  -69.9116    6.9946 H   0  0  0  0  0  0  0  0  0  0  0  0
   13.0112  -71.4604    5.3101 H   0  0  0  0  0  0  0  0  0  0  0  0
   13.6016  -68.7915    1.4345 H   0  0  0  0  0  0  0  0  0  0  0  0
   12.1809  -72.1835    1.9806 H   0  0  0  0  0  0  0  0  0  0  0  0
   12.7006  -72.7204    3.4326 H   0  0  0  0  0  0  0  0  0  0  0  0
   13.5932  -73.7410    1.1464 H   0  0  0  0  0  0  0  0  0  0  0  0
   14.4659  -73.8041    2.5252 H   0  0  0  0  0  0  0  0  0  0  0  0
   15.9901  -72.6041    1.3382 H   0  0  0  0  0  0  0  0  0  0  0  0
   13.7539  -71.7657   -0.2238 H   0  0  0  0  0  0  0  0  0  0  0  0
   14.9240  -72.8049   -0.6904 H   0  0  0  0  0  0  0  0  0  0  0  0
   15.3319  -70.0412   -0.2368 H   0  0  0  0  0  0  0  0  0  0  0  0
   15.1023  -70.7114   -1.7081 H   0  0  0  0  0  0  0  0  0  0  0  0
   17.1291  -72.0393   -1.2783 H   0  0  0  0  0  0  0  0  0  0  0  0
   17.3973  -71.0573   -0.0014 H   0  0  0  0  0  0  0  0  0  0  0  0
   17.3566  -71.0041   -3.7256 H   0  0  0  0  0  0  0  0  0  0  0  0
   18.8915  -67.4134   -2.7065 H   0  0  0  0  0  0  0  0  0  0  0  0
   19.2487  -68.0421   -0.0398 H   0  0  0  0  0  0  0  0  0  0  0  0
   18.0425  -68.9760    0.5429 H   0  0  0  0  0  0  0  0  0  0  0  0
  1  2  3  0  0  0  0
  2  3  1  0  0  0  0
  3  4  1  0  0  0  0
  4  5  1  0  0  0  0
  5  6  2  0  0  0  0
  6  7  1  0  0  0  0
  7  8  1  0  0  0  0
  8  9  1  0  0  0  0
  9 10  1  0  0  0  0
 10 11  2  0  0  0  0
 11 12  1  0  0  0  0
 12 13  2  0  0  0  0
 13 14  1  0  0  0  0
 14 15  2  0  0  0  0
 15 16  1  0  0  0  0
 16 17  2  0  0  0  0
 17 18  1  0  0  0  0
 18 19  2  0  0  0  0
 17 20  1  0  0  0  0
 20 21  1  0  0  0  0
 21 22  1  0  0  0  0
 22 23  1  0  0  0  0
 23 24  1  0  0  0  0
 24 25  1  0  0  0  0
 25 26  1  0  0  0  0
 26 27  1  0  0  0  0
 27 28  2  0  0  0  0
 28 29  1  0  0  0  0
 29 30  2  0  0  0  0
 30 31  1  0  0  0  0
 31 32  1  0  0  0  0
 23 33  1  0  0  0  0
 33 34  2  0  0  0  0
  8  3  1  0  0  0  0
 19 10  1  0  0  0  0
 33 20  1  0  0  0  0
 32  6  1  0  0  0  0
 18 13  1  0  0  0  0
 31 27  1  0  0  0  0
  3 35  1  0  0  0  0
  4 36  1  0  0  0  0
  4 37  1  0  0  0  0
  5 38  1  0  0  0  0
  7 39  1  0  0  0  0
  7 40  1  0  0  0  0
  8 41  1  0  0  0  0
 11 42  1  0  0  0  0
 12 43  1  0  0  0  0
 14 44  1  0  0  0  0
 15 45  1  0  0  0  0
 16 46  1  0  0  0  0
 19 47  1  0  0  0  0
 21 48  1  0  0  0  0
 21 49  1  0  0  0  0
 22 50  1  0  0  0  0
 22 51  1  0  0  0  0
 23 52  1  0  0  0  0
 24 53  1  0  0  0  0
 24 54  1  0  0  0  0
 25 55  1  0  0  0  0
 25 56  1  0  0  0  0
 26 57  1  0  0  0  0
 26 58  1  0  0  0  0
 28 59  1  0  0  0  0
 30 60  1  0  0  0  0
 32 61  1  0  0  0  0
 32 62  1  0  0  0  0
M  CHG  1  24   1
M  END
> <BIOSOLVEIT.HYDE_ESTIMATED_AFFINITY_LOWER_BOUNDARY [nM]>
3143891178088.543945

> <BIOSOLVEIT.HYDE_ESTIMATED_AFFINITY_UPPER_BOUNDARY [nM]>
312364176698830.062500

> <BIOSOLVEIT.HYDE_LIGAND_EFFICIENCY range: ++, +, 0, -, -->
--

> <BIOSOLVEIT.HYDE_LIGAND_LIPOPHILIC_EFFICIENCY range: ++, +, 0, -, -->
--

> <BIOSOLVEIT.INTER_CLASH range: red, yellow, green>
red

> <BIOSOLVEIT.INTRA_CLASH range: red, yellow, green>
green

> <BIOSOLVEIT.LOGP>
2.56868

> <BIOSOLVEIT.MOLECULAR WEIGHT>
454.551

> <BIOSOLVEIT.MOLECULE_CHECKSUM>
MjUuNjYzNjsw

> <BIOSOLVEIT.TORSION_QUALITY range: red, yellow, green, not rotatable>
not rotatable

> <BIOSOLVEIT.TPSA>
87.76

$$$$
1S63_778_1
foHydescor03192112153D 1   1.00000     0.00000     0
Hydescorer 1.1.0 fol007
 51 54  0  0  0  0            999 V2000
   20.3621  -76.1888    6.0871 N   0  0  0  0  0  0  0  0  0  0  0  0
   19.2724  -76.0170    5.7381 C   0  0  0  0  0  0  0  0  0  0  0  0
   17.9168  -75.8070    5.3025 C   0  0  0  0  0  0  0  0  0  0  0  0
   16.9041  -76.6140    5.8113 C   0  0  0  0  0  0  0  0  0  0  0  0
   15.5894  -76.4221    5.3999 C   0  0  0  0  0  0  0  0  0  0  0  0
   15.3061  -75.4188    4.4790 C   0  0  0  0  0  0  0  0  0  0  0  0
   13.8739  -75.1995    4.0198 C   0  0  0  0  0  0  0  0  0  0  0  0
   12.9821  -74.9544    5.1567 N   0  0  0  0  0  0  0  0  0  0  0  0
   12.2151  -75.8971    5.7767 C   0  0  0  0  0  0  0  0  0  0  0  0
   11.5566  -75.3035    6.7477 N   0  3  0  0  0  0  0  0  0  0  0  0
   11.8910  -73.9789    6.7628 C   0  0  0  0  0  0  0  0  0  0  0  0
   12.7895  -73.7504    5.7619 C   0  0  0  0  0  0  0  0  0  0  0  0
   13.4418  -72.4246    5.4058 C   0  0  0  0  0  0  0  0  0  0  0  0
   14.6699  -72.1473    6.1961 N   0  3  2  0  0  0  0  0  0  0  0  0
   15.7892  -71.7959    5.3092 C   0  0  0  0  0  0  0  0  0  0  0  0
   16.9651  -71.3493    6.1688 C   0  0  0  0  0  0  0  0  0  0  0  0
   17.2827  -72.3238    7.2237 N   0  0  0  0  0  0  0  0  0  0  0  0
   18.5411  -72.2649    7.8297 C   0  0  0  0  0  0  0  0  0  0  0  0
   19.6829  -72.4262    7.0514 C   0  0  0  0  0  0  0  0  0  0  0  0
   20.9325  -72.3652    7.6595 C   0  0  0  0  0  0  0  0  0  0  0  0
   21.0494  -72.1460    9.0278 C   0  0  0  0  0  0  0  0  0  0  0  0
   19.8946  -71.9869    9.7871 C   0  0  0  0  0  0  0  0  0  0  0  0
   20.0226  -71.7049   11.5397 Cl  0  0  0  0  0  0  0  0  0  0  0  0
   18.6351  -72.0443    9.1997 C   0  0  0  0  0  0  0  0  0  0  0  0
   16.3557  -73.2983    7.6206 C   0  0  0  0  0  0  0  0  0  0  0  0
   16.5896  -74.0829    8.5231 O   0  0  0  0  0  0  0  0  0  0  0  0
   15.0112  -73.3854    6.9082 C   0  0  0  0  0  0  0  0  0  0  0  0
   16.3162  -74.6105    3.9678 C   0  0  0  0  0  0  0  0  0  0  0  0
   17.6304  -74.8044    4.3815 C   0  0  0  0  0  0  0  0  0  0  0  0
   17.1215  -77.3320    6.4726 H   0  0  0  0  0  0  0  0  0  0  0  0
   14.8567  -76.9984    5.7618 H   0  0  0  0  0  0  0  0  0  0  0  0
   13.5607  -76.0129    3.5295 H   0  0  0  0  0  0  0  0  0  0  0  0
   13.8455  -74.4095    3.4073 H   0  0  0  0  0  0  0  0  0  0  0  0
   12.1629  -76.8662    5.5357 H   0  0  0  0  0  0  0  0  0  0  0  0
   11.5373  -73.2934    7.3993 H   0  0  0  0  0  0  0  0  0  0  0  0
   12.7833  -71.6909    5.5733 H   0  0  0  0  0  0  0  0  0  0  0  0
   13.6844  -72.4399    4.4357 H   0  0  0  0  0  0  0  0  0  0  0  0
   14.5013  -71.4087    6.8488 H   0  0  0  0  0  0  0  0  0  0  0  0
   15.5156  -71.0522    4.6991 H   0  0  0  0  0  0  0  0  0  0  0  0
   16.0521  -72.5931    4.7657 H   0  0  0  0  0  0  0  0  0  0  0  0
   16.7378  -70.4743    6.5963 H   0  0  0  0  0  0  0  0  0  0  0  0
   17.7676  -71.2355    5.5830 H   0  0  0  0  0  0  0  0  0  0  0  0
   19.6062  -72.5842    6.0669 H   0  0  0  0  0  0  0  0  0  0  0  0
   21.7572  -72.4805    7.1057 H   0  0  0  0  0  0  0  0  0  0  0  0
   21.9503  -72.1033    9.4596 H   0  0  0  0  0  0  0  0  0  0  0  0
   17.8105  -71.9289    9.7535 H   0  0  0  0  0  0  0  0  0  0  0  0
   14.3005  -73.5713    7.5867 H   0  0  0  0  0  0  0  0  0  0  0  0
   15.0463  -74.1357    6.2480 H   0  0  0  0  0  0  0  0  0  0  0  0
   16.0988  -73.8932    3.3059 H   0  0  0  0  0  0  0  0  0  0  0  0
   18.3630  -74.2278    4.0199 H   0  0  0  0  0  0  0  0  0  0  0  0
   10.9157  -75.7488    7.3730 H   0  0  0  0  0  0  0  0  0  0  0  0
  1  2  3  0  0  0  0
  2  3  1  0  0  0  0
  3  4  2  0  0  0  0
  4  5  1  0  0  0  0
  5  6  2  0  0  0  0
  6  7  1  0  0  0  0
  7  8  1  0  0  0  0
  8  9  1  0  0  0  0
  9 10  2  0  0  0  0
 10 11  1  0  0  0  0
 11 12  2  0  0  0  0
 12 13  1  0  0  0  0
 13 14  1  0  0  0  0
 14 15  1  0  0  0  0
 15 16  1  0  0  0  0
 16 17  1  0  0  0  0
 17 18  1  0  0  0  0
 18 19  2  0  0  0  0
 19 20  1  0  0  0  0
 20 21  2  0  0  0  0
 21 22  1  0  0  0  0
 22 23  1  0  0  0  0
 22 24  2  0  0  0  0
 17 25  1  0  0  0  0
 25 26  2  0  0  0  0
 25 27  1  0  0  0  0
  6 28  1  0  0  0  0
 28 29  2  0  0  0  0
 29  3  1  0  0  0  0
 12  8  1  0  0  0  0
 27 14  1  0  0  0  0
 24 18  1  0  0  0  0
  4 30  1  0  0  0  0
  5 31  1  0  0  0  0
  7 32  1  0  0  0  0
  7 33  1  0  0  0  0
  9 34  1  0  0  0  0
 11 35  1  0  0  0  0
 13 36  1  0  0  0  0
 13 37  1  0  0  0  0
 14 38  1  0  0  0  0
 15 39  1  0  0  0  0
 15 40  1  0  0  0  0
 16 41  1  0  0  0  0
 16 42  1  0  0  0  0
 19 43  1  0  0  0  0
 20 44  1  0  0  0  0
 21 45  1  0  0  0  0
 24 46  1  0  0  0  0
 27 47  1  0  0  0  0
 27 48  1  0  0  0  0
 28 49  1  0  0  0  0
 29 50  1  0  0  0  0
 10 51  1  0  0  0  0
M  CHG  2  10   1  14   1
M  END
> <BIOSOLVEIT.HYDE_ESTIMATED_AFFINITY_LOWER_BOUNDARY [nM]>
711302.814819

> <BIOSOLVEIT.HYDE_ESTIMATED_AFFINITY_UPPER_BOUNDARY [nM]>
70672140.207331

> <BIOSOLVEIT.HYDE_LIGAND_EFFICIENCY range: ++, +, 0, -, -->
--

> <BIOSOLVEIT.HYDE_LIGAND_LIPOPHILIC_EFFICIENCY range: ++, +, 0, -, -->
--

> <BIOSOLVEIT.INTER_CLASH range: red, yellow, green>
green

> <BIOSOLVEIT.INTRA_CLASH range: red, yellow, green>
green

> <BIOSOLVEIT.LOGP>
1.30728

> <BIOSOLVEIT.MOLECULAR WEIGHT>
407.903

> <BIOSOLVEIT.MOLECULE_CHECKSUM>
LTEyLjI2ODU7MC40MjMwNTI=

> <BIOSOLVEIT.TORSION_QUALITY range: red, yellow, green, not rotatable>
green

> <BIOSOLVEIT.TPSA>
67.61

$$$$
1S63_778_2
foHydescor03192112153D 1   1.00000     0.00000     0
Hydescorer 1.1.0 fol007
 51 54  0  0  0  0            999 V2000
   20.3459  -76.1948    6.0779 N   0  0  0  0  0  0  0  0  0  0  0  0
   19.2566  -76.0181    5.7305 C   0  0  0  0  0  0  0  0  0  0  0  0
   17.9014  -75.8020    5.2968 C   0  0  0  0  0  0  0  0  0  0  0  0
   16.8853  -76.6024    5.8093 C   0  0  0  0  0  0  0  0  0  0  0  0
   15.5710  -76.4046    5.3999 C   0  0  0  0  0  0  0  0  0  0  0  0
   15.2913  -75.4021    4.4770 C   0  0  0  0  0  0  0  0  0  0  0  0
   13.8593  -75.1762    4.0198 C   0  0  0  0  0  0  0  0  0  0  0  0
   12.9675  -74.9432    5.1591 N   0  0  0  0  0  0  0  0  0  0  0  0
   12.2112  -75.8952    5.7781 C   0  0  0  0  0  0  0  0  0  0  0  0
   11.5487  -75.3106    6.7520 N   0  3  0  0  0  0  0  0  0  0  0  0
   11.8699  -73.9827    6.7700 C   0  0  0  0  0  0  0  0  0  0  0  0
   12.7640  -73.7427    5.7678 C   0  0  0  0  0  0  0  0  0  0  0  0
   13.4023  -72.4095    5.4139 C   0  0  0  0  0  0  0  0  0  0  0  0
   14.6417  -72.1323    6.1864 N   0  3  2  0  0  0  0  0  0  0  0  0
   15.7500  -71.7887    5.2828 C   0  0  0  0  0  0  0  0  0  0  0  0
   16.9389  -71.3416    6.1244 C   0  0  0  0  0  0  0  0  0  0  0  0
   17.2676  -72.3122    7.1795 N   0  0  0  0  0  0  0  0  0  0  0  0
   18.5341  -72.2543    7.7683 C   0  0  0  0  0  0  0  0  0  0  0  0
   18.6422  -72.0290    9.1369 C   0  0  0  0  0  0  0  0  0  0  0  0
   19.9050  -71.9738    9.7178 C   0  0  0  0  0  0  0  0  0  0  0  0
   21.0514  -72.1408    8.9483 C   0  0  0  0  0  0  0  0  0  0  0  0
   20.9203  -72.3654    7.5816 C   0  0  0  0  0  0  0  0  0  0  0  0
   22.3750  -72.5819    6.5794 Cl  0  0  0  0  0  0  0  0  0  0  0  0
   19.6675  -72.4242    6.9802 C   0  0  0  0  0  0  0  0  0  0  0  0
   16.3430  -73.2818    7.5936 C   0  0  0  0  0  0  0  0  0  0  0  0
   16.5866  -74.0629    8.4967 O   0  0  0  0  0  0  0  0  0  0  0  0
   14.9888  -73.3682    6.8998 C   0  0  0  0  0  0  0  0  0  0  0  0
   16.3047  -74.6005    3.9620 C   0  0  0  0  0  0  0  0  0  0  0  0
   17.6186  -74.8003    4.3738 C   0  0  0  0  0  0  0  0  0  0  0  0
   17.1000  -77.3199    6.4720 H   0  0  0  0  0  0  0  0  0  0  0  0
   14.8359  -76.9761    5.7647 H   0  0  0  0  0  0  0  0  0  0  0  0
   13.5456  -75.9838    3.5203 H   0  0  0  0  0  0  0  0  0  0  0  0
   13.8319  -74.3794    3.4162 H   0  0  0  0  0  0  0  0  0  0  0  0
   12.1683  -76.8642    5.5346 H   0  0  0  0  0  0  0  0  0  0  0  0
   11.5107  -73.3026    7.4089 H   0  0  0  0  0  0  0  0  0  0  0  0
   12.7424  -71.6816    5.5993 H   0  0  0  0  0  0  0  0  0  0  0  0
   13.6288  -72.4139    4.4399 H   0  0  0  0  0  0  0  0  0  0  0  0
   14.4841  -71.3900    6.8377 H   0  0  0  0  0  0  0  0  0  0  0  0
   15.4705  -71.0471    4.6730 H   0  0  0  0  0  0  0  0  0  0  0  0
   16.0032  -72.5894    4.7397 H   0  0  0  0  0  0  0  0  0  0  0  0
   16.7200  -70.4640    6.5508 H   0  0  0  0  0  0  0  0  0  0  0  0
   17.7338  -71.2331    5.5274 H   0  0  0  0  0  0  0  0  0  0  0  0
   17.8221  -71.9082    9.6961 H   0  0  0  0  0  0  0  0  0  0  0  0
   19.9895  -71.8122   10.7010 H   0  0  0  0  0  0  0  0  0  0  0  0
   21.9566  -72.0999    9.3712 H   0  0  0  0  0  0  0  0  0  0  0  0
   19.5830  -72.5861    5.9970 H   0  0  0  0  0  0  0  0  0  0  0  0
   14.2867  -73.5486    7.5885 H   0  0  0  0  0  0  0  0  0  0  0  0
   15.0128  -74.1216    6.2427 H   0  0  0  0  0  0  0  0  0  0  0  0
   16.0899  -73.8835    3.2987 H   0  0  0  0  0  0  0  0  0  0  0  0
   18.3536  -74.2287    4.0092 H   0  0  0  0  0  0  0  0  0  0  0  0
   10.9135  -75.7639    7.3774 H   0  0  0  0  0  0  0  0  0  0  0  0
  1  2  3  0  0  0  0
  2  3  1  0  0  0  0
  3  4  2  0  0  0  0
  4  5  1  0  0  0  0
  5  6  2  0  0  0  0
  6  7  1  0  0  0  0
  7  8  1  0  0  0  0
  8  9  1  0  0  0  0
  9 10  2  0  0  0  0
 10 11  1  0  0  0  0
 11 12  2  0  0  0  0
 12 13  1  0  0  0  0
 13 14  1  0  0  0  0
 14 15  1  0  0  0  0
 15 16  1  0  0  0  0
 16 17  1  0  0  0  0
 17 18  1  0  0  0  0
 18 19  2  0  0  0  0
 19 20  1  0  0  0  0
 20 21  2  0  0  0  0
 21 22  1  0  0  0  0
 22 23  1  0  0  0  0
 22 24  2  0  0  0  0
 17 25  1  0  0  0  0
 25 26  2  0  0  0  0
 25 27  1  0  0  0  0
  6 28  1  0  0  0  0
 28 29  2  0  0  0  0
 29  3  1  0  0  0  0
 12  8  1  0  0  0  0
 27 14  1  0  0  0  0
 24 18  1  0  0  0  0
  4 30  1  0  0  0  0
  5 31  1  0  0  0  0
  7 32  1  0  0  0  0
  7 33  1  0  0  0  0
  9 34  1  0  0  0  0
 11 35  1  0  0  0  0
 13 36  1  0  0  0  0
 13 37  1  0  0  0  0
 14 38  1  0  0  0  0
 15 39  1  0  0  0  0
 15 40  1  0  0  0  0
 16 41  1  0  0  0  0
 16 42  1  0  0  0  0
 19 43  1  0  0  0  0
 20 44  1  0  0  0  0
 21 45  1  0  0  0  0
 24 46  1  0  0  0  0
 27 47  1  0  0  0  0
 27 48  1  0  0  0  0
 28 49  1  0  0  0  0
 29 50  1  0  0  0  0
 10 51  1  0  0  0  0
M  CHG  2  10   1  14   1
M  END
> <BIOSOLVEIT.HYDE_ESTIMATED_AFFINITY_LOWER_BOUNDARY [nM]>
284765.068907

> <BIOSOLVEIT.HYDE_ESTIMATED_AFFINITY_UPPER_BOUNDARY [nM]>
28293093.260283

> <BIOSOLVEIT.HYDE_LIGAND_EFFICIENCY range: ++, +, 0, -, -->
--

> <BIOSOLVEIT.HYDE_LIGAND_LIPOPHILIC_EFFICIENCY range: ++, +, 0, -, -->
--

> <BIOSOLVEIT.INTER_CLASH range: red, yellow, green>
green

> <BIOSOLVEIT.INTRA_CLASH range: red, yellow, green>
green

> <BIOSOLVEIT.LOGP>
1.30728

> <BIOSOLVEIT.MOLECULAR WEIGHT>
407.903

> <BIOSOLVEIT.MOLECULE_CHECKSUM>
LTE0LjUzNzg7MC41MDEzMDQ=

> <BIOSOLVEIT.TORSION_QUALITY range: red, yellow, green, not rotatable>
green

> <BIOSOLVEIT.TPSA>
67.61

$$$$
1S63_778_3
foHydescor03192112153D 1   1.00000     0.00000     0
Hydescorer 1.1.0 fol007
 50 53  0  0  0  0            999 V2000
   15.4400  -67.9475    5.9354 N   0  0  0  0  0  0  0  0  0  0  0  0
   15.1515  -69.0109    5.5824 C   0  0  0  0  0  0  0  0  0  0  0  0
   14.7948  -70.3332    5.1400 C   0  0  0  0  0  0  0  0  0  0  0  0
   15.7981  -71.2688    4.9080 C   0  0  0  0  0  0  0  0  0  0  0  0
   15.4683  -72.5506    4.4809 C   0  0  0  0  0  0  0  0  0  0  0  0
   14.1300  -72.8790    4.2906 C   0  0  0  0  0  0  0  0  0  0  0  0
   13.7557  -74.2759    3.8226 C   0  0  0  0  0  0  0  0  0  0  0  0
   13.3747  -75.1307    4.9502 N   0  0  0  0  0  0  0  0  0  0  0  0
   12.2415  -74.9941    5.6978 C   0  0  0  0  0  0  0  0  0  0  0  0
   12.2466  -75.9403    6.6108 N   0  0  0  0  0  0  0  0  0  0  0  0
   13.3776  -76.6921    6.4616 C   0  0  0  0  0  0  0  0  0  0  0  0
   14.0949  -76.1877    5.4164 C   0  0  0  0  0  0  0  0  0  0  0  0
   15.4202  -76.7070    4.8837 C   0  0  0  0  0  0  0  0  0  0  0  0
   16.1022  -77.6370    5.8216 N   0  3  2  0  0  0  0  0  0  0  0  0
   16.6105  -76.9615    7.0268 C   0  0  0  0  0  0  0  0  0  0  0  0
   17.5185  -75.8061    6.6364 C   0  0  0  0  0  0  0  0  0  0  0  0
   18.5418  -76.2356    5.6657 N   0  0  0  0  0  0  0  0  0  0  0  0
   19.6599  -75.4274    5.4440 C   0  0  0  0  0  0  0  0  0  0  0  0
   20.6709  -75.3823    6.3985 C   0  0  0  0  0  0  0  0  0  0  0  0
   21.7824  -74.5771    6.1719 C   0  0  0  0  0  0  0  0  0  0  0  0
   21.8907  -73.8229    5.0086 C   0  0  0  0  0  0  0  0  0  0  0  0
   20.8683  -73.8831    4.0671 C   0  0  0  0  0  0  0  0  0  0  0  0
   20.9881  -72.9258    2.5715 Cl  0  0  0  0  0  0  0  0  0  0  0  0
   19.7480  -74.6814    4.2734 C   0  0  0  0  0  0  0  0  0  0  0  0
   18.4096  -77.4332    4.9465 C   0  0  0  0  0  0  0  0  0  0  0  0
   19.2393  -77.7563    4.1092 O   0  0  0  0  0  0  0  0  0  0  0  0
   17.2183  -78.3543    5.1854 C   0  0  0  0  0  0  0  0  0  0  0  0
   13.1243  -71.9461    4.5210 C   0  0  0  0  0  0  0  0  0  0  0  0
   13.4573  -70.6647    4.9488 C   0  0  0  0  0  0  0  0  0  0  0  0
   16.7564  -71.0195    5.0482 H   0  0  0  0  0  0  0  0  0  0  0  0
   16.1845  -73.2280    4.3127 H   0  0  0  0  0  0  0  0  0  0  0  0
   14.5398  -74.6838    3.3549 H   0  0  0  0  0  0  0  0  0  0  0  0
   12.9856  -74.2114    3.1879 H   0  0  0  0  0  0  0  0  0  0  0  0
   11.5337  -74.2987    5.5735 H   0  0  0  0  0  0  0  0  0  0  0  0
   13.6358  -77.4784    7.0230 H   0  0  0  0  0  0  0  0  0  0  0  0
   16.0227  -75.9271    4.7146 H   0  0  0  0  0  0  0  0  0  0  0  0
   15.2505  -77.1896    4.0244 H   0  0  0  0  0  0  0  0  0  0  0  0
   15.4315  -78.3181    6.1153 H   0  0  0  0  0  0  0  0  0  0  0  0
   17.1270  -77.6157    7.5793 H   0  0  0  0  0  0  0  0  0  0  0  0
   15.8399  -76.6110    7.5590 H   0  0  0  0  0  0  0  0  0  0  0  0
   17.9728  -75.4570    7.4560 H   0  0  0  0  0  0  0  0  0  0  0  0
   16.9653  -75.0804    6.2273 H   0  0  0  0  0  0  0  0  0  0  0  0
   20.5996  -75.9221    7.2373 H   0  0  0  0  0  0  0  0  0  0  0  0
   22.5126  -74.5402    6.8541 H   0  0  0  0  0  0  0  0  0  0  0  0
   22.6919  -73.2456    4.8511 H   0  0  0  0  0  0  0  0  0  0  0  0
   19.0179  -74.7185    3.5911 H   0  0  0  0  0  0  0  0  0  0  0  0
   17.5028  -79.1061    5.7803 H   0  0  0  0  0  0  0  0  0  0  0  0
   16.9104  -78.7219    4.3078 H   0  0  0  0  0  0  0  0  0  0  0  0
   12.1662  -72.1952    4.3799 H   0  0  0  0  0  0  0  0  0  0  0  0
   12.7411  -69.9875    5.1173 H   0  0  0  0  0  0  0  0  0  0  0  0
  1  2  3  0  0  0  0
  2  3  1  0  0  0  0
  3  4  2  0  0  0  0
  4  5  1  0  0  0  0
  5  6  2  0  0  0  0
  6  7  1  0  0  0  0
  7  8  1  0  0  0  0
  8  9  1  0  0  0  0
  9 10  2  0  0  0  0
 10 11  1  0  0  0  0
 11 12  2  0  0  0  0
 12 13  1  0  0  0  0
 13 14  1  0  0  0  0
 14 15  1  0  0  0  0
 15 16  1  0  0  0  0
 16 17  1  0  0  0  0
 17 18  1  0  0  0  0
 18 19  2  0  0  0  0
 19 20  1  0  0  0  0
 20 21  2  0  0  0  0
 21 22  1  0  0  0  0
 22 23  1  0  0  0  0
 22 24  2  0  0  0  0
 17 25  1  0  0  0  0
 25 26  2  0  0  0  0
 25 27  1  0  0  0  0
  6 28  1  0  0  0  0
 28 29  2  0  0  0  0
 29  3  1  0  0  0  0
 12  8  1  0  0  0  0
 27 14  1  0  0  0  0
 24 18  1  0  0  0  0
  4 30  1  0  0  0  0
  5 31  1  0  0  0  0
  7 32  1  0  0  0  0
  7 33  1  0  0  0  0
  9 34  1  0  0  0  0
 11 35  1  0  0  0  0
 13 36  1  0  0  0  0
 13 37  1  0  0  0  0
 14 38  1  0  0  0  0
 15 39  1  0  0  0  0
 15 40  1  0  0  0  0
 16 41  1  0  0  0  0
 16 42  1  0  0  0  0
 19 43  1  0  0  0  0
 20 44  1  0  0  0  0
 21 45  1  0  0  0  0
 24 46  1  0  0  0  0
 27 47  1  0  0  0  0
 27 48  1  0  0  0  0
 28 49  1  0  0  0  0
 29 50  1  0  0  0  0
M  CHG  1  14   1
M  END
> <BIOSOLVEIT.HYDE_ESTIMATED_AFFINITY_LOWER_BOUNDARY [nM]>
423.272293

> <BIOSOLVEIT.HYDE_ESTIMATED_AFFINITY_UPPER_BOUNDARY [nM]>
42054.604850

> <BIOSOLVEIT.HYDE_LIGAND_EFFICIENCY range: ++, +, 0, -, -->
-

> <BIOSOLVEIT.HYDE_LIGAND_LIPOPHILIC_EFFICIENCY range: ++, +, 0, -, -->
-

> <BIOSOLVEIT.INTER_CLASH range: red, yellow, green>
green

> <BIOSOLVEIT.INTRA_CLASH range: red, yellow, green>
green

> <BIOSOLVEIT.LOGP>
1.88818

> <BIOSOLVEIT.MOLECULAR WEIGHT>
406.895

> <BIOSOLVEIT.MOLECULE_CHECKSUM>
LTMwLjY3OTM7MS4wNTc5MQ==

> <BIOSOLVEIT.TORSION_QUALITY range: red, yellow, green, not rotatable>
green

> <BIOSOLVEIT.TPSA>
66.36

$$$$
3E37_ED5_1
foHydescor03192112153D 1   1.00000     0.00000     0
Hydescorer 1.1.0 fol007
 85 88  0  0  0  0            999 V2000
   18.9880  -71.5067    7.2517 C   0  0  0  0  0  0  0  0  0  0  0  0
   19.9191  -72.6827    7.0056 C   0  0  0  0  0  0  0  0  0  0  0  0
   21.2865  -72.4866    7.1697 C   0  0  0  0  0  0  0  0  0  0  0  0
   22.1593  -73.5469    6.9503 C   0  0  0  0  0  0  0  0  0  0  0  0
   21.6622  -74.7893    6.5705 C   0  0  0  0  0  0  0  0  0  0  0  0
   20.2950  -74.9872    6.4058 C   0  0  0  0  0  0  0  0  0  0  0  0
   19.4221  -73.9260    6.6250 C   0  0  0  0  0  0  0  0  0  0  0  0
   17.6778  -74.1976    6.4097 S   0  0  0  0  0  0  0  0  0  0  0  0
   17.4446  -75.6800    6.3162 O   0  0  0  0  0  0  0  0  0  0  0  0
   16.9239  -73.7121    7.6163 O   0  0  0  0  0  0  0  0  0  0  0  0
   17.0378  -73.4605    4.9524 N   0  0  0  0  0  0  0  0  0  0  0  0
   16.2774  -72.2132    5.1529 C   0  0  0  0  0  0  0  0  0  0  0  0
   15.1354  -72.1143    4.1337 C   0  0  0  0  0  0  0  0  0  0  0  0
   13.9082  -71.6111    4.7699 N   0  0  0  0  0  0  0  0  0  0  0  0
   13.1022  -72.5417    5.5790 C   0  0  0  0  0  0  0  0  0  0  0  0
   13.4626  -73.9877    5.2748 C   0  0  0  0  0  0  0  0  0  0  0  0
   14.0318  -74.8689    6.1466 C   0  0  0  0  0  0  0  0  0  0  0  0
   14.1833  -76.0473    5.4778 N   0  0  0  0  0  0  0  0  0  0  0  0
   13.7287  -75.8968    4.2521 C   0  0  0  0  0  0  0  0  0  0  0  0
   13.2658  -74.6279    4.0920 N   0  0  0  0  0  0  0  0  0  0  0  0
   12.6750  -74.0541    2.8738 C   0  0  0  0  0  0  0  0  0  0  0  0
   13.5273  -70.2184    4.6410 C   0  0  0  0  0  0  0  0  0  0  0  0
   13.9460  -69.4964    3.5280 C   0  0  0  0  0  0  0  0  0  0  0  0
   13.5881  -68.1592    3.3919 C   0  0  0  0  0  0  0  0  0  0  0  0
   12.8110  -67.5612    4.3776 C   0  0  0  0  0  0  0  0  0  0  0  0
   12.4117  -66.1010    4.2404 C   0  0  0  0  0  0  0  0  0  0  0  0
   12.1078  -64.9893    4.1357 N   0  0  0  0  0  0  0  0  0  0  0  0
   12.3895  -68.2792    5.4922 C   0  0  0  0  0  0  0  0  0  0  0  0
   12.7499  -69.6163    5.6250 C   0  0  0  0  0  0  0  0  0  0  0  0
   17.8973  -73.6158    3.7503 C   0  0  0  0  0  0  0  0  0  0  0  0
   18.8909  -72.4598    3.4278 C   0  0  0  0  0  0  0  0  0  0  0  0
   18.5025  -71.7478    2.1396 C   0  0  0  0  0  0  0  0  0  0  0  0
   19.5984  -70.7243    1.8965 C   0  0  0  0  0  0  0  0  0  0  0  0
   20.8365  -71.4509    1.5790 N   0  0  0  0  0  0  0  0  0  0  0  0
   21.8639  -70.8345    0.8542 C   0  0  0  0  0  0  0  0  0  0  0  0
   21.6771  -69.6966    0.3435 O   0  0  0  0  0  0  0  0  0  0  0  0
   23.0956  -71.4928    0.7047 O   0  0  0  0  0  0  0  0  0  0  0  0
   24.2892  -70.9461    0.1247 C   0  0  0  0  0  0  0  0  0  0  0  0
   24.6792  -69.7194    0.9633 C   0  0  0  0  0  0  0  0  0  0  0  0
   24.0304  -70.4951   -1.3256 C   0  0  0  0  0  0  0  0  0  0  0  0
   25.4379  -71.9713    0.1788 C   0  0  0  0  0  0  0  0  0  0  0  0
   20.9853  -72.8414    2.0384 C   0  0  0  0  0  0  0  0  0  0  0  0
   20.3335  -72.9442    3.4124 C   0  0  0  0  0  0  0  0  0  0  0  0
   18.0422  -71.7923    7.0972 H   0  0  0  0  0  0  0  0  0  0  0  0
   19.0912  -71.1916    8.1951 H   0  0  0  0  0  0  0  0  0  0  0  0
   19.2182  -70.7624    6.6246 H   0  0  0  0  0  0  0  0  0  0  0  0
   21.6387  -71.5914    7.4428 H   0  0  0  0  0  0  0  0  0  0  0  0
   23.1440  -73.4162    7.0655 H   0  0  0  0  0  0  0  0  0  0  0  0
   22.2942  -75.5483    6.4142 H   0  0  0  0  0  0  0  0  0  0  0  0
   19.9434  -75.8827    6.1328 H   0  0  0  0  0  0  0  0  0  0  0  0
   16.8903  -71.4315    5.0380 H   0  0  0  0  0  0  0  0  0  0  0  0
   15.8959  -72.2047    6.0772 H   0  0  0  0  0  0  0  0  0  0  0  0
   14.9581  -73.0211    3.7512 H   0  0  0  0  0  0  0  0  0  0  0  0
   15.4039  -71.4899    3.4002 H   0  0  0  0  0  0  0  0  0  0  0  0
   12.1340  -72.3970    5.3751 H   0  0  0  0  0  0  0  0  0  0  0  0
   13.2696  -72.3607    6.5481 H   0  0  0  0  0  0  0  0  0  0  0  0
   14.2889  -74.6855    7.0954 H   0  0  0  0  0  0  0  0  0  0  0  0
   13.7244  -76.6060    3.5471 H   0  0  0  0  0  0  0  0  0  0  0  0
   12.4233  -73.1011    3.0423 H   0  0  0  0  0  0  0  0  0  0  0  0
   13.3406  -74.0964    2.1287 H   0  0  0  0  0  0  0  0  0  0  0  0
   11.8592  -74.5747    2.6219 H   0  0  0  0  0  0  0  0  0  0  0  0
   14.5040  -69.9387    2.8259 H   0  0  0  0  0  0  0  0  0  0  0  0
   13.8862  -67.6343    2.5946 H   0  0  0  0  0  0  0  0  0  0  0  0
   11.8308  -67.8367    6.1938 H   0  0  0  0  0  0  0  0  0  0  0  0
   12.4520  -70.1411    6.4224 H   0  0  0  0  0  0  0  0  0  0  0  0
   17.2929  -73.7215    2.9606 H   0  0  0  0  0  0  0  0  0  0  0  0
   18.4358  -74.4496    3.8718 H   0  0  0  0  0  0  0  0  0  0  0  0
   18.8136  -71.7913    4.1675 H   0  0  0  0  0  0  0  0  0  0  0  0
   17.6175  -71.2942    2.2440 H   0  0  0  0  0  0  0  0  0  0  0  0
   18.4566  -72.3977    1.3810 H   0  0  0  0  0  0  0  0  0  0  0  0
   19.7320  -70.1687    2.7172 H   0  0  0  0  0  0  0  0  0  0  0  0
   19.3463  -70.1325    1.1308 H   0  0  0  0  0  0  0  0  0  0  0  0
   25.5105  -69.3096    0.5878 H   0  0  0  0  0  0  0  0  0  0  0  0
   23.9371  -69.0495    0.9392 H   0  0  0  0  0  0  0  0  0  0  0  0
   24.8439  -70.0006    1.9086 H   0  0  0  0  0  0  0  0  0  0  0  0
   24.8717  -70.1176   -1.7125 H   0  0  0  0  0  0  0  0  0  0  0  0
   23.7354  -71.2797   -1.8710 H   0  0  0  0  0  0  0  0  0  0  0  0
   23.3161  -69.7953   -1.3346 H   0  0  0  0  0  0  0  0  0  0  0  0
   26.2596  -71.5732   -0.2291 H   0  0  0  0  0  0  0  0  0  0  0  0
   25.6228  -72.2148    1.1309 H   0  0  0  0  0  0  0  0  0  0  0  0
   25.1769  -72.7915   -0.3304 H   0  0  0  0  0  0  0  0  0  0  0  0
   21.9548  -73.0777    2.1022 H   0  0  0  0  0  0  0  0  0  0  0  0
   20.5324  -73.4624    1.3987 H   0  0  0  0  0  0  0  0  0  0  0  0
   20.8615  -72.3913    4.0570 H   0  0  0  0  0  0  0  0  0  0  0  0
   20.3508  -73.9012    3.7019 H   0  0  0  0  0  0  0  0  0  0  0  0
  1  2  1  0  0  0  0
  2  3  2  0  0  0  0
  3  4  1  0  0  0  0
  4  5  2  0  0  0  0
  5  6  1  0  0  0  0
  6  7  2  0  0  0  0
  7  8  1  0  0  0  0
  8  9  2  0  0  0  0
  8 10  2  0  0  0  0
  8 11  1  0  0  0  0
 11 12  1  0  0  0  0
 12 13  1  0  0  0  0
 13 14  1  0  0  0  0
 14 15  1  0  0  0  0
 15 16  1  0  0  0  0
 16 17  2  0  0  0  0
 17 18  1  0  0  0  0
 18 19  2  0  0  0  0
 19 20  1  0  0  0  0
 20 21  1  0  0  0  0
 14 22  1  0  0  0  0
 22 23  2  0  0  0  0
 23 24  1  0  0  0  0
 24 25  2  0  0  0  0
 25 26  1  0  0  0  0
 26 27  3  0  0  0  0
 25 28  1  0  0  0  0
 28 29  2  0  0  0  0
 11 30  1  0  0  0  0
 30 31  1  0  0  0  0
 31 32  1  0  0  0  0
 32 33  1  0  0  0  0
 33 34  1  0  0  0  0
 34 35  1  0  0  0  0
 35 36  2  0  0  0  0
 35 37  1  0  0  0  0
 37 38  1  0  0  0  0
 38 39  1  0  0  0  0
 38 40  1  0  0  0  0
 38 41  1  0  0  0  0
 34 42  1  0  0  0  0
 42 43  1  0  0  0  0
  7  2  1  0  0  0  0
 20 16  1  0  0  0  0
 29 22  1  0  0  0  0
 43 31  1  0  0  0  0
  1 44  1  0  0  0  0
  1 45  1  0  0  0  0
  1 46  1  0  0  0  0
  3 47  1  0  0  0  0
  4 48  1  0  0  0  0
  5 49  1  0  0  0  0
  6 50  1  0  0  0  0
 12 51  1  0  0  0  0
 12 52  1  0  0  0  0
 13 53  1  0  0  0  0
 13 54  1  0  0  0  0
 15 55  1  0  0  0  0
 15 56  1  0  0  0  0
 17 57  1  0  0  0  0
 19 58  1  0  0  0  0
 21 59  1  0  0  0  0
 21 60  1  0  0  0  0
 21 61  1  0  0  0  0
 23 62  1  0  0  0  0
 24 63  1  0  0  0  0
 28 64  1  0  0  0  0
 29 65  1  0  0  0  0
 30 66  1  0  0  0  0
 30 67  1  0  0  0  0
 31 68  1  0  0  0  0
 32 69  1  0  0  0  0
 32 70  1  0  0  0  0
 33 71  1  0  0  0  0
 33 72  1  0  0  0  0
 39 73  1  0  0  0  0
 39 74  1  0  0  0  0
 39 75  1  0  0  0  0
 40 76  1  0  0  0  0
 40 77  1  0  0  0  0
 40 78  1  0  0  0  0
 41 79  1  0  0  0  0
 41 80  1  0  0  0  0
 41 81  1  0  0  0  0
 42 82  1  0  0  0  0
 42 83  1  0  0  0  0
 43 84  1  0  0  0  0
 43 85  1  0  0  0  0
M  END
> <BIOSOLVEIT.HYDE_ESTIMATED_AFFINITY_LOWER_BOUNDARY [nM]>
56.794063

> <BIOSOLVEIT.HYDE_ESTIMATED_AFFINITY_UPPER_BOUNDARY [nM]>
5642.825903

> <BIOSOLVEIT.HYDE_LIGAND_EFFICIENCY range: ++, +, 0, -, -->
--

> <BIOSOLVEIT.HYDE_LIGAND_LIPOPHILIC_EFFICIENCY range: ++, +, 0, -, -->
--

> <BIOSOLVEIT.INTER_CLASH range: red, yellow, green>
green

> <BIOSOLVEIT.INTRA_CLASH range: red, yellow, green>
green

> <BIOSOLVEIT.LOGP>
5.5954

> <BIOSOLVEIT.MOLECULAR WEIGHT>
606.787

> <BIOSOLVEIT.MOLECULE_CHECKSUM>
LTM1LjY1ODU7MC44MjkyNjg=

> <BIOSOLVEIT.TORSION_QUALITY range: red, yellow, green, not rotatable>
red

> <BIOSOLVEIT.TPSA>
111.77

$$$$
3E37_ED5_2
foHydescor03192112153D 1   1.00000     0.00000     0
Hydescorer 1.1.0 fol007
 85 88  0  0  0  0            999 V2000
   19.3117  -76.0232    5.6272 C   0  0  0  0  0  0  0  0  0  0  0  0
   20.1074  -74.9567    6.3619 C   0  0  0  0  0  0  0  0  0  0  0  0
   21.4959  -75.0429    6.3476 C   0  0  0  0  0  0  0  0  0  0  0  0
   22.2465  -74.0795    7.0125 C   0  0  0  0  0  0  0  0  0  0  0  0
   21.6079  -73.0419    7.6838 C   0  0  0  0  0  0  0  0  0  0  0  0
   20.2197  -72.9541    7.6995 C   0  0  0  0  0  0  0  0  0  0  0  0
   19.4688  -73.9185    7.0343 C   0  0  0  0  0  0  0  0  0  0  0  0
   17.6954  -73.7901    7.0651 S   0  0  0  0  0  0  0  0  0  0  0  0
   17.1331  -75.1595    7.3285 O   0  0  0  0  0  0  0  0  0  0  0  0
   17.2580  -72.9119    8.2040 O   0  0  0  0  0  0  0  0  0  0  0  0
   17.0173  -73.2131    5.5537 N   0  0  0  0  0  0  0  0  0  0  0  0
   16.0334  -72.1218    5.6750 C   0  0  0  0  0  0  0  0  0  0  0  0
   15.0249  -72.1814    4.5207 C   0  0  0  0  0  0  0  0  0  0  0  0
   13.7122  -71.6714    4.9458 N   0  0  0  0  0  0  0  0  0  0  0  0
   12.7652  -72.6057    5.5784 C   0  0  0  0  0  0  0  0  0  0  0  0
   13.1668  -74.0505    5.3249 C   0  0  0  0  0  0  0  0  0  0  0  0
   13.6239  -74.9284    6.2634 C   0  0  0  0  0  0  0  0  0  0  0  0
   13.8638  -76.1069    5.6213 N   0  0  0  0  0  0  0  0  0  0  0  0
   13.5684  -75.9597    4.3475 C   0  0  0  0  0  0  0  0  0  0  0  0
   13.1246  -74.6928    4.1277 N   0  0  0  0  0  0  0  0  0  0  0  0
   12.6916  -74.1227    2.8433 C   0  0  0  0  0  0  0  0  0  0  0  0
   13.3782  -70.2697    4.7872 C   0  0  0  0  0  0  0  0  0  0  0  0
   13.8829  -69.5665    3.6982 C   0  0  0  0  0  0  0  0  0  0  0  0
   13.5709  -68.2210    3.5342 C   0  0  0  0  0  0  0  0  0  0  0  0
   12.7523  -67.5957    4.4684 C   0  0  0  0  0  0  0  0  0  0  0  0
   12.4024  -66.1262    4.3002 C   0  0  0  0  0  0  0  0  0  0  0  0
   12.1360  -65.0073    4.1719 N   0  0  0  0  0  0  0  0  0  0  0  0
   12.2448  -68.2948    5.5588 C   0  0  0  0  0  0  0  0  0  0  0  0
   12.5596  -69.6403    5.7195 C   0  0  0  0  0  0  0  0  0  0  0  0
   17.9585  -73.2341    4.4041 C   0  0  0  0  0  0  0  0  0  0  0  0
   18.7353  -71.9199    4.0921 C   0  0  0  0  0  0  0  0  0  0  0  0
   18.2060  -71.2584    2.8275 C   0  0  0  0  0  0  0  0  0  0  0  0
   19.1075  -70.0592    2.5901 C   0  0  0  0  0  0  0  0  0  0  0  0
   20.4441  -70.5586    2.2353 N   0  0  0  0  0  0  0  0  0  0  0  0
   21.3374  -69.7623    1.5081 C   0  0  0  0  0  0  0  0  0  0  0  0
   21.0561  -68.5553    1.2746 O   0  0  0  0  0  0  0  0  0  0  0  0
   22.5414  -70.3190    1.0463 O   0  0  0  0  0  0  0  0  0  0  0  0
   22.7774  -70.8804   -0.2533 C   0  0  0  0  0  0  0  0  0  0  0  0
   22.5706  -69.7542   -1.2775 C   0  0  0  0  0  0  0  0  0  0  0  0
   21.7723  -72.0104   -0.5471 C   0  0  0  0  0  0  0  0  0  0  0  0
   24.2246  -71.3965   -0.3671 C   0  0  0  0  0  0  0  0  0  0  0  0
   20.8355  -71.9126    2.6597 C   0  0  0  0  0  0  0  0  0  0  0  0
   20.2386  -72.1521    4.0417 C   0  0  0  0  0  0  0  0  0  0  0  0
   18.3343  -75.8346    5.7225 H   0  0  0  0  0  0  0  0  0  0  0  0
   19.5597  -76.0159    4.6584 H   0  0  0  0  0  0  0  0  0  0  0  0
   19.5176  -76.9207    6.0172 H   0  0  0  0  0  0  0  0  0  0  0  0
   21.9500  -75.7909    5.8634 H   0  0  0  0  0  0  0  0  0  0  0  0
   23.2451  -74.1325    7.0081 H   0  0  0  0  0  0  0  0  0  0  0  0
   22.1526  -72.3518    8.1602 H   0  0  0  0  0  0  0  0  0  0  0  0
   19.7661  -72.2058    8.1836 H   0  0  0  0  0  0  0  0  0  0  0  0
   16.5107  -71.2434    5.6506 H   0  0  0  0  0  0  0  0  0  0  0  0
   15.5460  -72.2124    6.5434 H   0  0  0  0  0  0  0  0  0  0  0  0
   14.9262  -73.1301    4.2204 H   0  0  0  0  0  0  0  0  0  0  0  0
   15.3625  -71.6249    3.7616 H   0  0  0  0  0  0  0  0  0  0  0  0
   11.8521  -72.4498    5.2014 H   0  0  0  0  0  0  0  0  0  0  0  0
   12.7517  -72.4389    6.5643 H   0  0  0  0  0  0  0  0  0  0  0  0
   13.7575  -74.7430    7.2369 H   0  0  0  0  0  0  0  0  0  0  0  0
   13.6566  -76.6697    3.6488 H   0  0  0  0  0  0  0  0  0  0  0  0
   12.4169  -73.1705    2.9769 H   0  0  0  0  0  0  0  0  0  0  0  0
   13.4468  -74.1631    2.1891 H   0  0  0  0  0  0  0  0  0  0  0  0
   11.9164  -74.6469    2.4904 H   0  0  0  0  0  0  0  0  0  0  0  0
   14.4700  -70.0283    3.0333 H   0  0  0  0  0  0  0  0  0  0  0  0
   13.9307  -67.7095    2.7539 H   0  0  0  0  0  0  0  0  0  0  0  0
   11.6573  -67.8329    6.2232 H   0  0  0  0  0  0  0  0  0  0  0  0
   12.1998  -70.1517    6.4999 H   0  0  0  0  0  0  0  0  0  0  0  0
   17.4312  -73.4721    3.5884 H   0  0  0  0  0  0  0  0  0  0  0  0
   18.6356  -73.9479    4.5832 H   0  0  0  0  0  0  0  0  0  0  0  0
   18.5609  -71.2893    4.8483 H   0  0  0  0  0  0  0  0  0  0  0  0
   17.2591  -70.9639    2.9571 H   0  0  0  0  0  0  0  0  0  0  0  0
   18.2555  -71.8914    2.0549 H   0  0  0  0  0  0  0  0  0  0  0  0
   19.1617  -69.5055    3.4211 H   0  0  0  0  0  0  0  0  0  0  0  0
   18.7433  -69.5036    1.8426 H   0  0  0  0  0  0  0  0  0  0  0  0
   22.7271  -70.1090   -2.1992 H   0  0  0  0  0  0  0  0  0  0  0  0
   21.6349  -69.4081   -1.2080 H   0  0  0  0  0  0  0  0  0  0  0  0
   23.2150  -69.0124   -1.0920 H   0  0  0  0  0  0  0  0  0  0  0  0
   21.9520  -72.3887   -1.4551 H   0  0  0  0  0  0  0  0  0  0  0  0
   21.8706  -72.7308    0.1396 H   0  0  0  0  0  0  0  0  0  0  0  0
   20.8418  -71.6453   -0.5162 H   0  0  0  0  0  0  0  0  0  0  0  0
   24.3700  -71.7833   -1.2777 H   0  0  0  0  0  0  0  0  0  0  0  0
   24.8610  -70.6391   -0.2211 H   0  0  0  0  0  0  0  0  0  0  0  0
   24.3821  -72.1021    0.3238 H   0  0  0  0  0  0  0  0  0  0  0  0
   21.8321  -71.9821    2.7019 H   0  0  0  0  0  0  0  0  0  0  0  0
   20.4812  -72.5884    2.0133 H   0  0  0  0  0  0  0  0  0  0  0  0
   20.6783  -71.5307    4.6901 H   0  0  0  0  0  0  0  0  0  0  0  0
   20.4234  -73.0979    4.3084 H   0  0  0  0  0  0  0  0  0  0  0  0
  1  2  1  0  0  0  0
  2  3  2  0  0  0  0
  3  4  1  0  0  0  0
  4  5  2  0  0  0  0
  5  6  1  0  0  0  0
  6  7  2  0  0  0  0
  7  8  1  0  0  0  0
  8  9  2  0  0  0  0
  8 10  2  0  0  0  0
  8 11  1  0  0  0  0
 11 12  1  0  0  0  0
 12 13  1  0  0  0  0
 13 14  1  0  0  0  0
 14 15  1  0  0  0  0
 15 16  1  0  0  0  0
 16 17  2  0  0  0  0
 17 18  1  0  0  0  0
 18 19  2  0  0  0  0
 19 20  1  0  0  0  0
 20 21  1  0  0  0  0
 14 22  1  0  0  0  0
 22 23  2  0  0  0  0
 23 24  1  0  0  0  0
 24 25  2  0  0  0  0
 25 26  1  0  0  0  0
 26 27  3  0  0  0  0
 25 28  1  0  0  0  0
 28 29  2  0  0  0  0
 11 30  1  0  0  0  0
 30 31  1  0  0  0  0
 31 32  1  0  0  0  0
 32 33  1  0  0  0  0
 33 34  1  0  0  0  0
 34 35  1  0  0  0  0
 35 36  2  0  0  0  0
 35 37  1  0  0  0  0
 37 38  1  0  0  0  0
 38 39  1  0  0  0  0
 38 40  1  0  0  0  0
 38 41  1  0  0  0  0
 34 42  1  0  0  0  0
 42 43  1  0  0  0  0
  7  2  1  0  0  0  0
 20 16  1  0  0  0  0
 29 22  1  0  0  0  0
 43 31  1  0  0  0  0
  1 44  1  0  0  0  0
  1 45  1  0  0  0  0
  1 46  1  0  0  0  0
  3 47  1  0  0  0  0
  4 48  1  0  0  0  0
  5 49  1  0  0  0  0
  6 50  1  0  0  0  0
 12 51  1  0  0  0  0
 12 52  1  0  0  0  0
 13 53  1  0  0  0  0
 13 54  1  0  0  0  0
 15 55  1  0  0  0  0
 15 56  1  0  0  0  0
 17 57  1  0  0  0  0
 19 58  1  0  0  0  0
 21 59  1  0  0  0  0
 21 60  1  0  0  0  0
 21 61  1  0  0  0  0
 23 62  1  0  0  0  0
 24 63  1  0  0  0  0
 28 64  1  0  0  0  0
 29 65  1  0  0  0  0
 30 66  1  0  0  0  0
 30 67  1  0  0  0  0
 31 68  1  0  0  0  0
 32 69  1  0  0  0  0
 32 70  1  0  0  0  0
 33 71  1  0  0  0  0
 33 72  1  0  0  0  0
 39 73  1  0  0  0  0
 39 74  1  0  0  0  0
 39 75  1  0  0  0  0
 40 76  1  0  0  0  0
 40 77  1  0  0  0  0
 40 78  1  0  0  0  0
 41 79  1  0  0  0  0
 41 80  1  0  0  0  0
 41 81  1  0  0  0  0
 42 82  1  0  0  0  0
 42 83  1  0  0  0  0
 43 84  1  0  0  0  0
 43 85  1  0  0  0  0
M  END
> <BIOSOLVEIT.HYDE_ESTIMATED_AFFINITY_LOWER_BOUNDARY [nM]>
187.977970

> <BIOSOLVEIT.HYDE_ESTIMATED_AFFINITY_UPPER_BOUNDARY [nM]>
18676.722755

> <BIOSOLVEIT.HYDE_LIGAND_EFFICIENCY range: ++, +, 0, -, -->
--

> <BIOSOLVEIT.HYDE_LIGAND_LIPOPHILIC_EFFICIENCY range: ++, +, 0, -, -->
--

> <BIOSOLVEIT.INTER_CLASH range: red, yellow, green>
green

> <BIOSOLVEIT.INTRA_CLASH range: red, yellow, green>
green

> <BIOSOLVEIT.LOGP>
5.5954

> <BIOSOLVEIT.MOLECULAR WEIGHT>
606.787

> <BIOSOLVEIT.MOLECULE_CHECKSUM>
LTMyLjY5MTU7MC43NjAyNjY=

> <BIOSOLVEIT.TORSION_QUALITY range: red, yellow, green, not rotatable>
red

> <BIOSOLVEIT.TPSA>
111.77

$$$$
3E37_ED5_3
foHydescor03192112153D 1   1.00000     0.00000     0
Hydescorer 1.1.0 fol007
 85 88  0  0  0  0            999 V2000
   19.1124  -70.9554    7.1127 C   0  0  0  0  0  0  0  0  0  0  0  0
   19.9852  -72.1984    7.1744 C   0  0  0  0  0  0  0  0  0  0  0  0
   21.3643  -72.0326    7.2510 C   0  0  0  0  0  0  0  0  0  0  0  0
   22.1844  -73.1542    7.3084 C   0  0  0  0  0  0  0  0  0  0  0  0
   21.6238  -74.4270    7.2889 C   0  0  0  0  0  0  0  0  0  0  0  0
   20.2450  -74.5948    7.2120 C   0  0  0  0  0  0  0  0  0  0  0  0
   19.4246  -73.4724    7.1543 C   0  0  0  0  0  0  0  0  0  0  0  0
   17.6643  -73.7061    7.0566 S   0  0  0  0  0  0  0  0  0  0  0  0
   17.3702  -75.1547    7.3316 O   0  0  0  0  0  0  0  0  0  0  0  0
   16.9744  -72.9091    8.1283 O   0  0  0  0  0  0  0  0  0  0  0  0
   17.0009  -73.3133    5.4809 N   0  0  0  0  0  0  0  0  0  0  0  0
   16.3284  -72.0049    5.3833 C   0  0  0  0  0  0  0  0  0  0  0  0
   15.2342  -72.0456    4.3092 C   0  0  0  0  0  0  0  0  0  0  0  0
   13.9519  -71.5692    4.8501 N   0  0  0  0  0  0  0  0  0  0  0  0
   13.1006  -72.5210    5.5846 C   0  0  0  0  0  0  0  0  0  0  0  0
   13.4965  -73.9582    5.2828 C   0  0  0  0  0  0  0  0  0  0  0  0
   14.0658  -74.8311    6.1628 C   0  0  0  0  0  0  0  0  0  0  0  0
   14.2549  -76.0035    5.4931 N   0  0  0  0  0  0  0  0  0  0  0  0
   13.8224  -75.8575    4.2590 C   0  0  0  0  0  0  0  0  0  0  0  0
   13.3369  -74.5975    4.0940 N   0  0  0  0  0  0  0  0  0  0  0  0
   12.7594  -74.0311    2.8660 C   0  0  0  0  0  0  0  0  0  0  0  0
   13.5582  -70.1820    4.7030 C   0  0  0  0  0  0  0  0  0  0  0  0
   14.0113  -69.4562    3.6059 C   0  0  0  0  0  0  0  0  0  0  0  0
   13.6416  -68.1243    3.4526 C   0  0  0  0  0  0  0  0  0  0  0  0
   12.8180  -67.5349    4.4052 C   0  0  0  0  0  0  0  0  0  0  0  0
   12.4053  -66.0804    4.2489 C   0  0  0  0  0  0  0  0  0  0  0  0
   12.0912  -64.9730    4.1297 N   0  0  0  0  0  0  0  0  0  0  0  0
   12.3618  -68.2565    5.5037 C   0  0  0  0  0  0  0  0  0  0  0  0
   12.7341  -69.5885    5.6537 C   0  0  0  0  0  0  0  0  0  0  0  0
   17.7905  -73.8251    4.3309 C   0  0  0  0  0  0  0  0  0  0  0  0
   18.7025  -72.8082    3.5810 C   0  0  0  0  0  0  0  0  0  0  0  0
   20.1423  -73.3019    3.6651 C   0  0  0  0  0  0  0  0  0  0  0  0
   20.8332  -73.3639    2.3088 C   0  0  0  0  0  0  0  0  0  0  0  0
   20.4877  -72.2213    1.4462 N   0  0  0  0  0  0  0  0  0  0  0  0
   21.3906  -71.6970    0.5118 C   0  0  0  0  0  0  0  0  0  0  0  0
   20.9981  -70.8455   -0.3317 O   0  0  0  0  0  0  0  0  0  0  0  0
   22.7278  -72.1268    0.5260 O   0  0  0  0  0  0  0  0  0  0  0  0
   23.8923  -71.2909    0.4543 C   0  0  0  0  0  0  0  0  0  0  0  0
   23.7924  -70.2756    1.6030 C   0  0  0  0  0  0  0  0  0  0  0  0
   23.9303  -70.5267   -0.8829 C   0  0  0  0  0  0  0  0  0  0  0  0
   25.1729  -72.1271    0.6396 C   0  0  0  0  0  0  0  0  0  0  0  0
   19.1687  -71.5819    1.5404 C   0  0  0  0  0  0  0  0  0  0  0  0
   18.2175  -72.5957    2.1540 C   0  0  0  0  0  0  0  0  0  0  0  0
   18.1510  -71.2254    7.0608 H   0  0  0  0  0  0  0  0  0  0  0  0
   19.2599  -70.4035    7.9335 H   0  0  0  0  0  0  0  0  0  0  0  0
   19.3523  -70.4195    6.3032 H   0  0  0  0  0  0  0  0  0  0  0  0
   21.7623  -71.1153    7.2646 H   0  0  0  0  0  0  0  0  0  0  0  0
   23.1769  -73.0458    7.3636 H   0  0  0  0  0  0  0  0  0  0  0  0
   22.2183  -75.2301    7.3306 H   0  0  0  0  0  0  0  0  0  0  0  0
   19.8476  -75.5123    7.1985 H   0  0  0  0  0  0  0  0  0  0  0  0
   17.0014  -71.3056    5.1420 H   0  0  0  0  0  0  0  0  0  0  0  0
   15.9157  -71.7798    6.2660 H   0  0  0  0  0  0  0  0  0  0  0  0
   15.1252  -72.9863    3.9880 H   0  0  0  0  0  0  0  0  0  0  0  0
   15.5044  -71.4613    3.5439 H   0  0  0  0  0  0  0  0  0  0  0  0
   12.1478  -72.3816    5.3153 H   0  0  0  0  0  0  0  0  0  0  0  0
   13.1973  -72.3551    6.5660 H   0  0  0  0  0  0  0  0  0  0  0  0
   14.2999  -74.6462    7.1173 H   0  0  0  0  0  0  0  0  0  0  0  0
   13.8469  -76.5638    3.5516 H   0  0  0  0  0  0  0  0  0  0  0  0
   12.4850  -73.0841    3.0327 H   0  0  0  0  0  0  0  0  0  0  0  0
   13.4407  -74.0569    2.1345 H   0  0  0  0  0  0  0  0  0  0  0  0
   11.9597  -74.5672    2.5956 H   0  0  0  0  0  0  0  0  0  0  0  0
   14.6027  -69.8922    2.9276 H   0  0  0  0  0  0  0  0  0  0  0  0
   13.9643  -67.5968    2.6666 H   0  0  0  0  0  0  0  0  0  0  0  0
   11.7698  -67.8203    6.1815 H   0  0  0  0  0  0  0  0  0  0  0  0
   12.4115  -70.1158    6.4398 H   0  0  0  0  0  0  0  0  0  0  0  0
   17.1442  -74.1971    3.6646 H   0  0  0  0  0  0  0  0  0  0  0  0
   18.3771  -74.5595    4.6724 H   0  0  0  0  0  0  0  0  0  0  0  0
   18.6476  -71.9321    4.0599 H   0  0  0  0  0  0  0  0  0  0  0  0
   20.1416  -74.2188    4.0640 H   0  0  0  0  0  0  0  0  0  0  0  0
   20.6574  -72.6815    4.2565 H   0  0  0  0  0  0  0  0  0  0  0  0
   20.5592  -74.2080    1.8478 H   0  0  0  0  0  0  0  0  0  0  0  0
   21.8227  -73.3691    2.4530 H   0  0  0  0  0  0  0  0  0  0  0  0
   24.5902  -69.6730    1.5856 H   0  0  0  0  0  0  0  0  0  0  0  0
   22.9607  -69.7309    1.4950 H   0  0  0  0  0  0  0  0  0  0  0  0
   23.7612  -70.7621    2.4761 H   0  0  0  0  0  0  0  0  0  0  0  0
   24.7472  -69.9507   -0.9146 H   0  0  0  0  0  0  0  0  0  0  0  0
   23.9536  -71.1800   -1.6396 H   0  0  0  0  0  0  0  0  0  0  0  0
   23.1149  -69.9533   -0.9624 H   0  0  0  0  0  0  0  0  0  0  0  0
   25.9724  -71.5287    0.5867 H   0  0  0  0  0  0  0  0  0  0  0  0
   25.1514  -72.5764    1.5327 H   0  0  0  0  0  0  0  0  0  0  0  0
   25.2263  -72.8190   -0.0804 H   0  0  0  0  0  0  0  0  0  0  0  0
   18.8492  -71.3206    0.6296 H   0  0  0  0  0  0  0  0  0  0  0  0
   19.2231  -70.7691    2.1205 H   0  0  0  0  0  0  0  0  0  0  0  0
   18.2484  -73.4553    1.6441 H   0  0  0  0  0  0  0  0  0  0  0  0
   17.2826  -72.2410    2.1531 H   0  0  0  0  0  0  0  0  0  0  0  0
  1  2  1  0  0  0  0
  2  3  2  0  0  0  0
  3  4  1  0  0  0  0
  4  5  2  0  0  0  0
  5  6  1  0  0  0  0
  6  7  2  0  0  0  0
  7  8  1  0  0  0  0
  8  9  2  0  0  0  0
  8 10  2  0  0  0  0
  8 11  1  0  0  0  0
 11 12  1  0  0  0  0
 12 13  1  0  0  0  0
 13 14  1  0  0  0  0
 14 15  1  0  0  0  0
 15 16  1  0  0  0  0
 16 17  2  0  0  0  0
 17 18  1  0  0  0  0
 18 19  2  0  0  0  0
 19 20  1  0  0  0  0
 20 21  1  0  0  0  0
 14 22  1  0  0  0  0
 22 23  2  0  0  0  0
 23 24  1  0  0  0  0
 24 25  2  0  0  0  0
 25 26  1  0  0  0  0
 26 27  3  0  0  0  0
 25 28  1  0  0  0  0
 28 29  2  0  0  0  0
 11 30  1  0  0  0  0
 30 31  1  0  0  0  0
 31 32  1  0  0  0  0
 32 33  1  0  0  0  0
 33 34  1  0  0  0  0
 34 35  1  0  0  0  0
 35 36  2  0  0  0  0
 35 37  1  0  0  0  0
 37 38  1  0  0  0  0
 38 39  1  0  0  0  0
 38 40  1  0  0  0  0
 38 41  1  0  0  0  0
 34 42  1  0  0  0  0
 42 43  1  0  0  0  0
  7  2  1  0  0  0  0
 20 16  1  0  0  0  0
 29 22  1  0  0  0  0
 43 31  1  0  0  0  0
  1 44  1  0  0  0  0
  1 45  1  0  0  0  0
  1 46  1  0  0  0  0
  3 47  1  0  0  0  0
  4 48  1  0  0  0  0
  5 49  1  0  0  0  0
  6 50  1  0  0  0  0
 12 51  1  0  0  0  0
 12 52  1  0  0  0  0
 13 53  1  0  0  0  0
 13 54  1  0  0  0  0
 15 55  1  0  0  0  0
 15 56  1  0  0  0  0
 17 57  1  0  0  0  0
 19 58  1  0  0  0  0
 21 59  1  0  0  0  0
 21 60  1  0  0  0  0
 21 61  1  0  0  0  0
 23 62  1  0  0  0  0
 24 63  1  0  0  0  0
 28 64  1  0  0  0  0
 29 65  1  0  0  0  0
 30 66  1  0  0  0  0
 30 67  1  0  0  0  0
 31 68  1  0  0  0  0
 32 69  1  0  0  0  0
 32 70  1  0  0  0  0
 33 71  1  0  0  0  0
 33 72  1  0  0  0  0
 39 73  1  0  0  0  0
 39 74  1  0  0  0  0
 39 75  1  0  0  0  0
 40 76  1  0  0  0  0
 40 77  1  0  0  0  0
 40 78  1  0  0  0  0
 41 79  1  0  0  0  0
 41 80  1  0  0  0  0
 41 81  1  0  0  0  0
 42 82  1  0  0  0  0
 42 83  1  0  0  0  0
 43 84  1  0  0  0  0
 43 85  1  0  0  0  0
M  END
> <BIOSOLVEIT.HYDE_ESTIMATED_AFFINITY_LOWER_BOUNDARY [nM]>
289.439369

> <BIOSOLVEIT.HYDE_ESTIMATED_AFFINITY_UPPER_BOUNDARY [nM]>
28757.512594

> <BIOSOLVEIT.HYDE_LIGAND_EFFICIENCY range: ++, +, 0, -, -->
--

> <BIOSOLVEIT.HYDE_LIGAND_LIPOPHILIC_EFFICIENCY range: ++, +, 0, -, -->
--

> <BIOSOLVEIT.INTER_CLASH range: red, yellow, green>
green

> <BIOSOLVEIT.INTRA_CLASH range: red, yellow, green>
green

> <BIOSOLVEIT.LOGP>
5.5954

> <BIOSOLVEIT.MOLECULAR WEIGHT>
606.787

> <BIOSOLVEIT.MOLECULE_CHECKSUM>
LTMxLjYyMTU7MC43MzUzODM=

> <BIOSOLVEIT.TORSION_QUALITY range: red, yellow, green, not rotatable>
red

> <BIOSOLVEIT.TPSA>
111.77

$$$$
2IEJ_S48_1
foHydescor03192112153D 1   1.00000     0.00000     0
Hydescorer 1.1.0 fol007
 68 72  0  0  0  0            999 V2000
   11.2239  -67.1511    9.0012 C   0  0  0  0  0  0  0  0  0  0  0  0
   11.5016  -68.0779    7.9593 O   0  0  0  0  0  0  0  0  0  0  0  0
   11.9339  -67.6779    6.6927 C   0  0  0  0  0  0  0  0  0  0  0  0
   12.1760  -66.4612    6.4606 O   0  0  0  0  0  0  0  0  0  0  0  0
   12.0388  -68.6740    5.5708 C   0  0  0  0  0  0  0  0  0  0  0  0
   13.4140  -68.9097    5.0761 N   0  0  0  0  0  0  0  0  0  0  0  0
   13.9364  -70.2938    4.9177 C   0  0  2  0  0  0  0  0  0  0  0  0
   15.4261  -70.3094    5.2329 C   0  0  0  0  0  0  0  0  0  0  0  0
   16.0422  -71.6616    4.9108 C   0  0  0  0  0  0  0  0  0  0  0  0
   17.2633  -71.9412    5.4914 C   0  0  0  0  0  0  0  0  0  0  0  0
   17.8816  -73.1550    5.2106 C   0  0  0  0  0  0  0  0  0  0  0  0
   19.1590  -73.4684    5.8182 C   0  0  0  0  0  0  0  0  0  0  0  0
   19.7648  -72.5376    6.6553 C   0  0  0  0  0  0  0  0  0  0  0  0
   20.9913  -72.8443    7.2351 C   0  0  0  0  0  0  0  0  0  0  0  0
   21.6042  -74.0663    6.9815 C   0  0  0  0  0  0  0  0  0  0  0  0
   20.9908  -74.9913    6.1425 C   0  0  0  0  0  0  0  0  0  0  0  0
   19.7643  -74.6936    5.5580 C   0  0  0  0  0  0  0  0  0  0  0  0
   17.2776  -74.0651    4.3508 C   0  0  0  0  0  0  0  0  0  0  0  0
   16.0440  -73.7376    3.7935 C   0  0  0  0  0  0  0  0  0  0  0  0
   15.3832  -72.5392    4.0550 C   0  0  0  0  0  0  0  0  0  0  0  0
   14.1221  -72.2345    3.5280 N   0  0  0  0  0  0  0  0  0  0  0  0
   13.1800  -73.2592    3.0528 C   0  0  0  0  0  0  0  0  0  0  0  0
   12.9316  -74.2986    4.1119 C   0  0  0  0  0  0  0  0  0  0  0  0
   13.1942  -75.6322    3.9989 C   0  0  0  0  0  0  0  0  0  0  0  0
   12.8263  -76.2108    5.1774 N   0  0  0  0  0  0  0  0  0  0  0  0
   12.3588  -75.2761    5.9769 C   0  0  0  0  0  0  0  0  0  0  0  0
   12.4155  -74.0710    5.3486 N   0  0  0  0  0  0  0  0  0  0  0  0
   11.9924  -72.7730    5.8954 C   0  0  0  0  0  0  0  0  0  0  0  0
   13.7158  -70.8300    3.5089 C   0  0  0  0  0  0  0  0  0  0  0  0
   13.9350  -67.8153    3.8129 S   0  0  0  0  0  0  0  0  0  0  0  0
   15.3666  -68.0769    3.4360 O   0  0  0  0  0  0  0  0  0  0  0  0
   13.7895  -66.3906    4.2695 O   0  0  0  0  0  0  0  0  0  0  0  0
   12.9272  -68.0652    2.4016 C   0  0  0  0  0  0  0  0  0  0  0  0
   13.2417  -67.6807    1.1342 C   0  0  0  0  0  0  0  0  0  0  0  0
   12.1903  -68.0671    0.3645 N   0  0  0  0  0  0  0  0  0  0  0  0
   12.0672  -67.8698   -1.0869 C   0  0  0  0  0  0  0  0  0  0  0  0
   11.2703  -68.6708    1.1653 C   0  0  0  0  0  0  0  0  0  0  0  0
   11.7079  -68.6753    2.4028 N   0  0  0  0  0  0  0  0  0  0  0  0
   10.9303  -67.6465    9.8186 H   0  0  0  0  0  0  0  0  0  0  0  0
   12.0490  -66.6255    9.2084 H   0  0  0  0  0  0  0  0  0  0  0  0
   10.4971  -66.5293    8.7093 H   0  0  0  0  0  0  0  0  0  0  0  0
   11.4862  -68.3412    4.8067 H   0  0  0  0  0  0  0  0  0  0  0  0
   11.6707  -69.5459    5.8936 H   0  0  0  0  0  0  0  0  0  0  0  0
   13.4647  -70.8912    5.5663 H   0  0  0  0  0  0  0  0  0  0  0  0
   15.5558  -70.1151    6.2052 H   0  0  0  0  0  0  0  0  0  0  0  0
   15.8820  -69.6052    4.6885 H   0  0  0  0  0  0  0  0  0  0  0  0
   17.6968  -71.2808    6.1045 H   0  0  0  0  0  0  0  0  0  0  0  0
   19.3242  -71.6587    6.8380 H   0  0  0  0  0  0  0  0  0  0  0  0
   21.4352  -72.1817    7.8382 H   0  0  0  0  0  0  0  0  0  0  0  0
   22.4858  -74.2803    7.4021 H   0  0  0  0  0  0  0  0  0  0  0  0
   21.4318  -75.8700    5.9597 H   0  0  0  0  0  0  0  0  0  0  0  0
   19.3204  -75.3560    4.9546 H   0  0  0  0  0  0  0  0  0  0  0  0
   17.7194  -74.9364    4.1371 H   0  0  0  0  0  0  0  0  0  0  0  0
   15.6116  -74.3944    3.1757 H   0  0  0  0  0  0  0  0  0  0  0  0
   13.5618  -73.7034    2.2423 H   0  0  0  0  0  0  0  0  0  0  0  0
   12.3130  -72.8209    2.8155 H   0  0  0  0  0  0  0  0  0  0  0  0
   13.5826  -76.0971    3.2033 H   0  0  0  0  0  0  0  0  0  0  0  0
   12.0150  -75.4282    6.9035 H   0  0  0  0  0  0  0  0  0  0  0  0
   12.1481  -72.0577    5.2142 H   0  0  0  0  0  0  0  0  0  0  0  0
   11.0196  -72.8091    6.1246 H   0  0  0  0  0  0  0  0  0  0  0  0
   12.5216  -72.5698    6.7191 H   0  0  0  0  0  0  0  0  0  0  0  0
   12.7510  -70.7533    3.2576 H   0  0  0  0  0  0  0  0  0  0  0  0
   14.2725  -70.3188    2.8540 H   0  0  0  0  0  0  0  0  0  0  0  0
   14.0721  -67.2122    0.8328 H   0  0  0  0  0  0  0  0  0  0  0  0
   11.1965  -68.2473   -1.4019 H   0  0  0  0  0  0  0  0  0  0  0  0
   12.1013  -66.8922   -1.2945 H   0  0  0  0  0  0  0  0  0  0  0  0
   12.8202  -68.3357   -1.5517 H   0  0  0  0  0  0  0  0  0  0  0  0
   10.3977  -69.0513    0.8590 H   0  0  0  0  0  0  0  0  0  0  0  0
  1  2  1  0  0  0  0
  2  3  1  0  0  0  0
  3  4  2  0  0  0  0
  3  5  1  0  0  0  0
  5  6  1  0  0  0  0
  6  7  1  0  0  0  0
  7  8  1  0  0  0  0
  8  9  1  0  0  0  0
  9 10  2  0  0  0  0
 10 11  1  0  0  0  0
 11 12  1  0  0  0  0
 12 13  2  0  0  0  0
 13 14  1  0  0  0  0
 14 15  2  0  0  0  0
 15 16  1  0  0  0  0
 16 17  2  0  0  0  0
 11 18  2  0  0  0  0
 18 19  1  0  0  0  0
 19 20  2  0  0  0  0
 20 21  1  0  0  0  0
 21 22  1  0  0  0  0
 22 23  1  0  0  0  0
 23 24  2  0  0  0  0
 24 25  1  0  0  0  0
 25 26  2  0  0  0  0
 26 27  1  0  0  0  0
 27 28  1  0  0  0  0
 21 29  1  0  0  0  0
  6 30  1  0  0  0  0
 30 31  2  0  0  0  0
 30 32  2  0  0  0  0
 30 33  1  0  0  0  0
 33 34  2  0  0  0  0
 34 35  1  0  0  0  0
 35 36  1  0  0  0  0
 35 37  1  0  0  0  0
 37 38  2  0  0  0  0
 29  7  1  0  0  0  0
 38 33  1  0  0  0  0
 20  9  1  0  0  0  0
 27 23  1  0  0  0  0
 17 12  1  0  0  0  0
  1 39  1  0  0  0  0
  1 40  1  0  0  0  0
  1 41  1  0  0  0  0
  5 42  1  0  0  0  0
  5 43  1  0  0  0  0
  7 44  1  0  0  0  0
  8 45  1  0  0  0  0
  8 46  1  0  0  0  0
 10 47  1  0  0  0  0
 13 48  1  0  0  0  0
 14 49  1  0  0  0  0
 15 50  1  0  0  0  0
 16 51  1  0  0  0  0
 17 52  1  0  0  0  0
 18 53  1  0  0  0  0
 19 54  1  0  0  0  0
 22 55  1  0  0  0  0
 22 56  1  0  0  0  0
 24 57  1  0  0  0  0
 26 58  1  0  0  0  0
 28 59  1  0  0  0  0
 28 60  1  0  0  0  0
 28 61  1  0  0  0  0
 29 62  1  0  0  0  0
 29 63  1  0  0  0  0
 34 64  1  0  0  0  0
 36 65  1  0  0  0  0
 36 66  1  0  0  0  0
 36 67  1  0  0  0  0
 37 68  1  0  0  0  0
M  END
> <BIOSOLVEIT.HYDE_ESTIMATED_AFFINITY_LOWER_BOUNDARY [nM]>
1283119.165293

> <BIOSOLVEIT.HYDE_ESTIMATED_AFFINITY_UPPER_BOUNDARY [nM]>
127485475.472762

> <BIOSOLVEIT.HYDE_LIGAND_EFFICIENCY range: ++, +, 0, -, -->
--

> <BIOSOLVEIT.HYDE_LIGAND_LIPOPHILIC_EFFICIENCY range: ++, +, 0, -, -->
--

> <BIOSOLVEIT.INTER_CLASH range: red, yellow, green>
green

> <BIOSOLVEIT.INTRA_CLASH range: red, yellow, green>
yellow

> <BIOSOLVEIT.LOGP>
3.2664

> <BIOSOLVEIT.MOLECULAR WEIGHT>
534.637

> <BIOSOLVEIT.MOLECULE_CHECKSUM>
LTEwLjgwNjswLjI4NDM2OQ==

> <BIOSOLVEIT.TORSION_QUALITY range: red, yellow, green, not rotatable>
yellow

> <BIOSOLVEIT.TPSA>
102.56

$$$$
2IEJ_S48_2
foHydescor03192112153D 1   1.00000     0.00000     0
Hydescorer 1.1.0 fol007
 68 72  0  0  0  0            999 V2000
   11.2690  -67.1601    8.8658 C   0  0  0  0  0  0  0  0  0  0  0  0
   11.5238  -68.0944    7.8247 O   0  0  0  0  0  0  0  0  0  0  0  0
   11.9656  -67.7061    6.5577 C   0  0  0  0  0  0  0  0  0  0  0  0
   12.2564  -66.4993    6.3302 O   0  0  0  0  0  0  0  0  0  0  0  0
   12.0239  -68.7002    5.4306 C   0  0  0  0  0  0  0  0  0  0  0  0
   13.3790  -68.9438    4.8867 N   0  0  0  0  0  0  0  0  0  0  0  0
   13.8976  -70.3299    4.7346 C   0  0  2  0  0  0  0  0  0  0  0  0
   15.4001  -70.3359    4.9811 C   0  0  0  0  0  0  0  0  0  0  0  0
   16.0047  -71.6937    4.6605 C   0  0  0  0  0  0  0  0  0  0  0  0
   17.2520  -71.9583    5.1901 C   0  0  0  0  0  0  0  0  0  0  0  0
   17.8601  -73.1768    4.9076 C   0  0  0  0  0  0  0  0  0  0  0  0
   19.1651  -73.4743    5.4626 C   0  0  0  0  0  0  0  0  0  0  0  0
   19.5065  -74.7940    5.7377 C   0  0  0  0  0  0  0  0  0  0  0  0
   20.7605  -75.0728    6.2708 C   0  0  0  0  0  0  0  0  0  0  0  0
   21.6619  -74.0452    6.5253 C   0  0  0  0  0  0  0  0  0  0  0  0
   21.3115  -72.7278    6.2472 C   0  0  0  0  0  0  0  0  0  0  0  0
   20.0597  -72.4390    5.7140 C   0  0  0  0  0  0  0  0  0  0  0  0
   17.2199  -74.1065    4.0966 C   0  0  0  0  0  0  0  0  0  0  0  0
   15.9609  -73.7936    3.5897 C   0  0  0  0  0  0  0  0  0  0  0  0
   15.3094  -72.5911    3.8553 C   0  0  0  0  0  0  0  0  0  0  0  0
   14.0245  -72.3002    3.3804 N   0  0  0  0  0  0  0  0  0  0  0  0
   13.0646  -73.3368    2.9714 C   0  0  0  0  0  0  0  0  0  0  0  0
   12.8708  -74.3551    4.0620 C   0  0  0  0  0  0  0  0  0  0  0  0
   13.1377  -75.6892    3.9651 C   0  0  0  0  0  0  0  0  0  0  0  0
   12.8264  -76.2450    5.1706 N   0  0  0  0  0  0  0  0  0  0  0  0
   12.3881  -75.2966    5.9704 C   0  0  0  0  0  0  0  0  0  0  0  0
   12.4082  -74.1047    5.3154 N   0  0  0  0  0  0  0  0  0  0  0  0
   12.0003  -72.7982    5.8531 C   0  0  0  0  0  0  0  0  0  0  0  0
   13.6139  -70.8972    3.3494 C   0  0  0  0  0  0  0  0  0  0  0  0
   13.8474  -67.8734    3.5830 S   0  0  0  0  0  0  0  0  0  0  0  0
   15.2565  -68.1548    3.1406 O   0  0  0  0  0  0  0  0  0  0  0  0
   13.7378  -66.4407    4.0244 O   0  0  0  0  0  0  0  0  0  0  0  0
   12.7694  -68.1341    2.2268 C   0  0  0  0  0  0  0  0  0  0  0  0
   13.0351  -67.7933    0.9358 C   0  0  0  0  0  0  0  0  0  0  0  0
   11.9395  -68.1715    0.2259 N   0  0  0  0  0  0  0  0  0  0  0  0
   11.7549  -68.0109   -1.2234 C   0  0  0  0  0  0  0  0  0  0  0  0
   11.0418  -68.7273    1.0848 C   0  0  0  0  0  0  0  0  0  0  0  0
   11.5359  -68.7098    2.3007 N   0  0  0  0  0  0  0  0  0  0  0  0
   10.9633  -67.6475    9.6837 H   0  0  0  0  0  0  0  0  0  0  0  0
   12.1067  -66.6548    9.0726 H   0  0  0  0  0  0  0  0  0  0  0  0
   10.5576  -66.5210    8.5734 H   0  0  0  0  0  0  0  0  0  0  0  0
   11.4467  -68.3619    4.6874 H   0  0  0  0  0  0  0  0  0  0  0  0
   11.6618  -69.5705    5.7644 H   0  0  0  0  0  0  0  0  0  0  0  0
   13.4579  -70.9139    5.4169 H   0  0  0  0  0  0  0  0  0  0  0  0
   15.5739  -70.1202    5.9420 H   0  0  0  0  0  0  0  0  0  0  0  0
   15.8285  -69.6430    4.4012 H   0  0  0  0  0  0  0  0  0  0  0  0
   17.7112  -71.2838    5.7683 H   0  0  0  0  0  0  0  0  0  0  0  0
   18.8586  -75.5333    5.5545 H   0  0  0  0  0  0  0  0  0  0  0  0
   21.0155  -76.0185    6.4724 H   0  0  0  0  0  0  0  0  0  0  0  0
   22.5620  -74.2530    6.9082 H   0  0  0  0  0  0  0  0  0  0  0  0
   21.9596  -71.9886    6.4305 H   0  0  0  0  0  0  0  0  0  0  0  0
   19.8044  -71.4934    5.5127 H   0  0  0  0  0  0  0  0  0  0  0  0
   17.6539  -74.9814    3.8817 H   0  0  0  0  0  0  0  0  0  0  0  0
   15.5024  -74.4645    3.0069 H   0  0  0  0  0  0  0  0  0  0  0  0
   13.4090  -73.7964    2.1528 H   0  0  0  0  0  0  0  0  0  0  0  0
   12.1857  -72.9059    2.7669 H   0  0  0  0  0  0  0  0  0  0  0  0
   13.4939  -76.1683    3.1629 H   0  0  0  0  0  0  0  0  0  0  0  0
   12.0867  -75.4312    6.9144 H   0  0  0  0  0  0  0  0  0  0  0  0
   12.1206  -72.0965    5.1508 H   0  0  0  0  0  0  0  0  0  0  0  0
   11.0390  -72.8355    6.1259 H   0  0  0  0  0  0  0  0  0  0  0  0
   12.5641  -72.5742    6.6480 H   0  0  0  0  0  0  0  0  0  0  0  0
   12.6383  -70.8278    3.1413 H   0  0  0  0  0  0  0  0  0  0  0  0
   14.1383  -70.3993    2.6586 H   0  0  0  0  0  0  0  0  0  0  0  0
   13.8628  -67.3565    0.5837 H   0  0  0  0  0  0  0  0  0  0  0  0
   10.8609  -68.3726   -1.4876 H   0  0  0  0  0  0  0  0  0  0  0  0
   11.8052  -67.0408   -1.4604 H   0  0  0  0  0  0  0  0  0  0  0  0
   12.4730  -68.5102   -1.7081 H   0  0  0  0  0  0  0  0  0  0  0  0
   10.1463  -69.0918    0.8295 H   0  0  0  0  0  0  0  0  0  0  0  0
  1  2  1  0  0  0  0
  2  3  1  0  0  0  0
  3  4  2  0  0  0  0
  3  5  1  0  0  0  0
  5  6  1  0  0  0  0
  6  7  1  0  0  0  0
  7  8  1  0  0  0  0
  8  9  1  0  0  0  0
  9 10  2  0  0  0  0
 10 11  1  0  0  0  0
 11 12  1  0  0  0  0
 12 13  2  0  0  0  0
 13 14  1  0  0  0  0
 14 15  2  0  0  0  0
 15 16  1  0  0  0  0
 16 17  2  0  0  0  0
 11 18  2  0  0  0  0
 18 19  1  0  0  0  0
 19 20  2  0  0  0  0
 20 21  1  0  0  0  0
 21 22  1  0  0  0  0
 22 23  1  0  0  0  0
 23 24  2  0  0  0  0
 24 25  1  0  0  0  0
 25 26  2  0  0  0  0
 26 27  1  0  0  0  0
 27 28  1  0  0  0  0
 21 29  1  0  0  0  0
  6 30  1  0  0  0  0
 30 31  2  0  0  0  0
 30 32  2  0  0  0  0
 30 33  1  0  0  0  0
 33 34  2  0  0  0  0
 34 35  1  0  0  0  0
 35 36  1  0  0  0  0
 35 37  1  0  0  0  0
 37 38  2  0  0  0  0
 29  7  1  0  0  0  0
 38 33  1  0  0  0  0
 20  9  1  0  0  0  0
 27 23  1  0  0  0  0
 17 12  1  0  0  0  0
  1 39  1  0  0  0  0
  1 40  1  0  0  0  0
  1 41  1  0  0  0  0
  5 42  1  0  0  0  0
  5 43  1  0  0  0  0
  7 44  1  0  0  0  0
  8 45  1  0  0  0  0
  8 46  1  0  0  0  0
 10 47  1  0  0  0  0
 13 48  1  0  0  0  0
 14 49  1  0  0  0  0
 15 50  1  0  0  0  0
 16 51  1  0  0  0  0
 17 52  1  0  0  0  0
 18 53  1  0  0  0  0
 19 54  1  0  0  0  0
 22 55  1  0  0  0  0
 22 56  1  0  0  0  0
 24 57  1  0  0  0  0
 26 58  1  0  0  0  0
 28 59  1  0  0  0  0
 28 60  1  0  0  0  0
 28 61  1  0  0  0  0
 29 62  1  0  0  0  0
 29 63  1  0  0  0  0
 34 64  1  0  0  0  0
 36 65  1  0  0  0  0
 36 66  1  0  0  0  0
 36 67  1  0  0  0  0
 37 68  1  0  0  0  0
M  END
> <BIOSOLVEIT.HYDE_ESTIMATED_AFFINITY_LOWER_BOUNDARY [nM]>
137274.444888

> <BIOSOLVEIT.HYDE_ESTIMATED_AFFINITY_UPPER_BOUNDARY [nM]>
13639027.730375

> <BIOSOLVEIT.HYDE_LIGAND_EFFICIENCY range: ++, +, 0, -, -->
--

> <BIOSOLVEIT.HYDE_LIGAND_LIPOPHILIC_EFFICIENCY range: ++, +, 0, -, -->
--

> <BIOSOLVEIT.INTER_CLASH range: red, yellow, green>
green

> <BIOSOLVEIT.INTRA_CLASH range: red, yellow, green>
yellow

> <BIOSOLVEIT.LOGP>
3.2664

> <BIOSOLVEIT.MOLECULAR WEIGHT>
534.637

> <BIOSOLVEIT.MOLECULE_CHECKSUM>
LTE2LjM0Njc7MC40MzAxNzY=

> <BIOSOLVEIT.TORSION_QUALITY range: red, yellow, green, not rotatable>
yellow

> <BIOSOLVEIT.TPSA>
102.56

$$$$
2IEJ_S48_3
foHydescor03192112153D 1   1.00000     0.00000     0
Hydescorer 1.1.0 fol007
 69 73  0  0  0  0            999 V2000
   17.7576  -70.2240    6.0190 C   0  0  0  0  0  0  0  0  0  0  0  0
   16.6980  -69.5336    5.3691 O   0  0  0  0  0  0  0  0  0  0  0  0
   15.5030  -70.1599    5.0075 C   0  0  0  0  0  0  0  0  0  0  0  0
   14.8743  -70.8592    5.8486 O   0  0  0  0  0  0  0  0  0  0  0  0
   14.9930  -70.0762    3.5951 C   0  0  0  0  0  0  0  0  0  0  0  0
   15.8063  -70.8064    2.5967 N   0  0  0  0  0  0  0  0  0  0  0  0
   17.0701  -71.4524    2.9861 C   0  0  2  0  0  0  0  0  0  0  0  0
   18.0857  -71.2903    1.8632 C   0  0  0  0  0  0  0  0  0  0  0  0
   19.3458  -72.0947    2.1410 C   0  0  0  0  0  0  0  0  0  0  0  0
   20.4739  -71.7477    1.4247 C   0  0  0  0  0  0  0  0  0  0  0  0
   21.6473  -72.4675    1.6239 C   0  0  0  0  0  0  0  0  0  0  0  0
   22.8429  -72.1110    0.8870 C   0  0  0  0  0  0  0  0  0  0  0  0
   22.7957  -71.0652   -0.0283 C   0  0  0  0  0  0  0  0  0  0  0  0
   23.9467  -70.7284   -0.7327 C   0  0  0  0  0  0  0  0  0  0  0  0
   25.1299  -71.4281   -0.5244 C   0  0  0  0  0  0  0  0  0  0  0  0
   25.1676  -72.4732    0.3932 C   0  0  0  0  0  0  0  0  0  0  0  0
   24.0217  -72.8175    1.1024 C   0  0  0  0  0  0  0  0  0  0  0  0
   21.6747  -73.5247    2.5259 C   0  0  0  0  0  0  0  0  0  0  0  0
   20.5111  -73.8330    3.2266 C   0  0  0  0  0  0  0  0  0  0  0  0
   19.3172  -73.1327    3.0677 C   0  0  0  0  0  0  0  0  0  0  0  0
   18.1631  -73.4175    3.8080 N   0  0  0  0  0  0  0  0  0  0  0  0
   18.1891  -74.1223    5.0987 C   0  0  0  0  0  0  0  0  0  0  0  0
   18.1881  -75.6139    4.9007 C   0  0  0  0  0  0  0  0  0  0  0  0
   19.2803  -76.4283    4.9645 C   0  0  0  0  0  0  0  0  0  0  0  0
   18.8429  -77.6983    4.7298 N   0  0  0  0  0  0  0  0  0  0  0  0
   17.5427  -77.6652    4.5306 C   0  0  0  0  0  0  0  0  0  0  0  0
   17.0995  -76.3836    4.6360 N   0  0  0  0  0  0  0  0  0  0  0  0
   15.7133  -75.9168    4.4842 C   0  0  0  0  0  0  0  0  0  0  0  0
   16.8855  -72.9346    3.2859 C   0  0  0  0  0  0  0  0  0  0  0  0
   14.8801  -71.7254    1.4295 S   0  0  0  0  0  0  0  0  0  0  0  0
   15.7899  -72.4527    0.4787 O   0  0  0  0  0  0  0  0  0  0  0  0
   13.9722  -70.8121    0.6541 O   0  0  0  0  0  0  0  0  0  0  0  0
   13.9052  -72.9022    2.2862 C   0  0  0  0  0  0  0  0  0  0  0  0
   13.6633  -72.8956    3.6258 C   0  0  0  0  0  0  0  0  0  0  0  0
   12.8712  -73.9751    3.8588 N   0  0  0  0  0  0  0  0  0  0  0  0
   12.3415  -74.3885    5.1660 C   0  0  0  0  0  0  0  0  0  0  0  0
   12.6488  -74.6084    2.6748 C   0  0  0  0  0  0  0  0  0  0  0  0
   13.2713  -73.9653    1.7146 N   0  3  0  0  0  0  0  0  0  0  0  0
   18.5143  -69.5920    6.1859 H   0  0  0  0  0  0  0  0  0  0  0  0
   17.4315  -70.5909    6.8903 H   0  0  0  0  0  0  0  0  0  0  0  0
   18.0721  -70.9746    5.4380 H   0  0  0  0  0  0  0  0  0  0  0  0
   14.9674  -69.1122    3.3304 H   0  0  0  0  0  0  0  0  0  0  0  0
   14.0664  -70.4518    3.5762 H   0  0  0  0  0  0  0  0  0  0  0  0
   17.4225  -71.0005    3.8055 H   0  0  0  0  0  0  0  0  0  0  0  0
   18.3277  -70.3237    1.7793 H   0  0  0  0  0  0  0  0  0  0  0  0
   17.6785  -71.6076    1.0067 H   0  0  0  0  0  0  0  0  0  0  0  0
   20.4478  -70.9902    0.7723 H   0  0  0  0  0  0  0  0  0  0  0  0
   21.9448  -70.5615   -0.1781 H   0  0  0  0  0  0  0  0  0  0  0  0
   23.9231  -69.9780   -1.3933 H   0  0  0  0  0  0  0  0  0  0  0  0
   25.9538  -71.1802   -1.0341 H   0  0  0  0  0  0  0  0  0  0  0  0
   26.0185  -72.9767    0.5429 H   0  0  0  0  0  0  0  0  0  0  0  0
   24.0451  -73.5681    1.7627 H   0  0  0  0  0  0  0  0  0  0  0  0
   22.5118  -74.0528    2.6686 H   0  0  0  0  0  0  0  0  0  0  0  0
   20.5337  -74.5938    3.8752 H   0  0  0  0  0  0  0  0  0  0  0  0
   17.3821  -73.8626    5.6291 H   0  0  0  0  0  0  0  0  0  0  0  0
   19.0147  -73.8596    5.5979 H   0  0  0  0  0  0  0  0  0  0  0  0
   20.2223  -76.1476    5.1485 H   0  0  0  0  0  0  0  0  0  0  0  0
   16.9690  -78.4599    4.3322 H   0  0  0  0  0  0  0  0  0  0  0  0
   15.6792  -74.9258    4.6136 H   0  0  0  0  0  0  0  0  0  0  0  0
   15.3832  -76.1449    3.5682 H   0  0  0  0  0  0  0  0  0  0  0  0
   15.1348  -76.3624    5.1675 H   0  0  0  0  0  0  0  0  0  0  0  0
   16.1643  -73.0617    3.9668 H   0  0  0  0  0  0  0  0  0  0  0  0
   16.6456  -73.4284    2.4500 H   0  0  0  0  0  0  0  0  0  0  0  0
   13.9981  -72.2348    4.2977 H   0  0  0  0  0  0  0  0  0  0  0  0
   11.7889  -75.2147    5.0556 H   0  0  0  0  0  0  0  0  0  0  0  0
   13.1007  -74.5760    5.7892 H   0  0  0  0  0  0  0  0  0  0  0  0
   11.7743  -73.6561    5.5426 H   0  0  0  0  0  0  0  0  0  0  0  0
   12.0976  -75.4342    2.5551 H   0  0  0  0  0  0  0  0  0  0  0  0
   13.2790  -74.2095    0.7449 H   0  0  0  0  0  0  0  0  0  0  0  0
  1  2  1  0  0  0  0
  2  3  1  0  0  0  0
  3  4  2  0  0  0  0
  3  5  1  0  0  0  0
  5  6  1  0  0  0  0
  6  7  1  0  0  0  0
  7  8  1  0  0  0  0
  8  9  1  0  0  0  0
  9 10  2  0  0  0  0
 10 11  1  0  0  0  0
 11 12  1  0  0  0  0
 12 13  2  0  0  0  0
 13 14  1  0  0  0  0
 14 15  2  0  0  0  0
 15 16  1  0  0  0  0
 16 17  2  0  0  0  0
 11 18  2  0  0  0  0
 18 19  1  0  0  0  0
 19 20  2  0  0  0  0
 20 21  1  0  0  0  0
 21 22  1  0  0  0  0
 22 23  1  0  0  0  0
 23 24  2  0  0  0  0
 24 25  1  0  0  0  0
 25 26  2  0  0  0  0
 26 27  1  0  0  0  0
 27 28  1  0  0  0  0
 21 29  1  0  0  0  0
  6 30  1  0  0  0  0
 30 31  2  0  0  0  0
 30 32  2  0  0  0  0
 30 33  1  0  0  0  0
 33 34  2  0  0  0  0
 34 35  1  0  0  0  0
 35 36  1  0  0  0  0
 35 37  1  0  0  0  0
 37 38  2  0  0  0  0
 29  7  1  0  0  0  0
 38 33  1  0  0  0  0
 20  9  1  0  0  0  0
 27 23  1  0  0  0  0
 17 12  1  0  0  0  0
  1 39  1  0  0  0  0
  1 40  1  0  0  0  0
  1 41  1  0  0  0  0
  5 42  1  0  0  0  0
  5 43  1  0  0  0  0
  7 44  1  0  0  0  0
  8 45  1  0  0  0  0
  8 46  1  0  0  0  0
 10 47  1  0  0  0  0
 13 48  1  0  0  0  0
 14 49  1  0  0  0  0
 15 50  1  0  0  0  0
 16 51  1  0  0  0  0
 17 52  1  0  0  0  0
 18 53  1  0  0  0  0
 19 54  1  0  0  0  0
 22 55  1  0  0  0  0
 22 56  1  0  0  0  0
 24 57  1  0  0  0  0
 26 58  1  0  0  0  0
 28 59  1  0  0  0  0
 28 60  1  0  0  0  0
 28 61  1  0  0  0  0
 29 62  1  0  0  0  0
 29 63  1  0  0  0  0
 34 64  1  0  0  0  0
 36 65  1  0  0  0  0
 36 66  1  0  0  0  0
 36 67  1  0  0  0  0
 37 68  1  0  0  0  0
 38 69  1  0  0  0  0
M  CHG  1  38   1
M  END
> <BIOSOLVEIT.HYDE_ESTIMATED_AFFINITY_LOWER_BOUNDARY [nM]>
1110286.071637

> <BIOSOLVEIT.HYDE_ESTIMATED_AFFINITY_UPPER_BOUNDARY [nM]>
110313485.747950

> <BIOSOLVEIT.HYDE_LIGAND_EFFICIENCY range: ++, +, 0, -, -->
--

> <BIOSOLVEIT.HYDE_LIGAND_LIPOPHILIC_EFFICIENCY range: ++, +, 0, -, -->
--

> <BIOSOLVEIT.INTER_CLASH range: red, yellow, green>
green

> <BIOSOLVEIT.INTRA_CLASH range: red, yellow, green>
green

> <BIOSOLVEIT.LOGP>
2.6855

> <BIOSOLVEIT.MOLECULAR WEIGHT>
535.645

> <BIOSOLVEIT.MOLECULE_CHECKSUM>
LTExLjE2NDc7MC4yOTM4MDc=

> <BIOSOLVEIT.TORSION_QUALITY range: red, yellow, green, not rotatable>
red

> <BIOSOLVEIT.TPSA>
103.81

$$$$
