1JCQ_739_1
foHydescor03192112233D 1   1.00000     0.00000     0
Hydescorer 1.1.0 fol007
 74 74  0  0  0  0            999 V2000
   18.0824  137.1065    3.1697 C   0  0  0  0  0  0  0  0  0  0  0  0
   19.1333  136.0110    2.9866 C   0  0  0  0  0  0  0  0  0  0  0  0
   19.4990  135.7853    1.4896 C   0  0  1  0  0  0  0  0  0  0  0  0
   19.9348  137.1333    0.8788 C   0  0  0  0  0  0  0  0  0  0  0  0
   20.5861  134.6618    1.3420 C   0  0  2  0  0  0  0  0  0  0  0  0
   20.1316  133.2891    1.9238 C   0  0  0  0  0  0  0  0  0  0  0  0
   18.9551  132.8115    1.2909 O   0  0  0  0  0  0  0  0  0  0  0  0
   19.0640  132.8573   -0.1243 C   0  0  2  0  0  0  0  0  0  0  0  0
   17.8057  132.2220   -0.7511 C   0  0  0  0  0  0  0  0  0  0  0  0
   17.6849  132.4571   -2.2398 C   0  0  0  0  0  0  0  0  0  0  0  0
   18.3049  131.5801   -3.1233 C   0  0  0  0  0  0  0  0  0  0  0  0
   18.1902  131.8024   -4.4914 C   0  0  0  0  0  0  0  0  0  0  0  0
   17.4647  132.8875   -4.9703 C   0  0  0  0  0  0  0  0  0  0  0  0
   16.8481  133.7598   -4.0789 C   0  0  0  0  0  0  0  0  0  0  0  0
   16.9571  133.5459   -2.7089 C   0  0  0  0  0  0  0  0  0  0  0  0
   20.3283  132.1589   -0.5770 C   0  0  0  0  0  0  0  0  0  0  0  0
   20.4819  130.9391   -0.2987 O   0  0  0  0  0  0  0  0  0  0  0  0
   21.4390  132.8848   -1.1345 N   0  0  0  0  0  0  0  0  0  0  0  0
   21.4683  133.5601   -2.4432 C   0  0  1  0  0  0  0  0  0  0  0  0
   20.2381  134.4736   -2.6552 C   0  0  0  0  0  0  0  0  0  0  0  0
   20.4811  135.9571   -2.3439 C   0  0  0  0  0  0  0  0  0  0  0  0
   19.0204  136.9339   -2.6622 S   0  0  0  0  0  0  0  0  0  0  0  0
   19.3531  138.6608   -2.3865 C   0  0  0  0  0  0  0  0  0  0  0  0
   17.9044  136.4889   -1.7594 O   0  0  0  0  0  0  0  0  0  0  0  0
   18.6052  136.7373   -4.0928 O   0  0  0  0  0  0  0  0  0  0  0  0
   22.7845  134.2306   -2.7470 C   0  0  0  0  0  0  0  0  0  0  0  0
   22.9432  134.8147   -3.8514 O   0  0  0  0  0  0  0  0  0  0  0  0
   23.8187  134.2497   -1.8194 O   0  0  0  0  0  0  0  0  0  0  0  0
   21.8575  135.0725    2.0002 N   0  3  0  0  0  0  0  0  0  0  0  0
   22.0885  134.3210    3.2497 C   0  0  0  0  0  0  0  0  0  0  0  0
   21.7097  135.1385    4.5113 C   0  0  1  0  0  0  0  0  0  0  0  0
   20.9507  134.3001    5.4499 N   0  0  0  0  0  0  0  0  0  0  0  0
   22.9233  135.7908    5.2147 C   0  0  0  0  0  0  0  0  0  0  0  0
   22.4678  137.1632    6.2639 S   0  0  0  0  0  0  0  0  0  0  0  0
   17.8804  137.2153    4.1430 H   0  0  0  0  0  0  0  0  0  0  0  0
   18.4324  137.9687    2.8035 H   0  0  0  0  0  0  0  0  0  0  0  0
   17.2471  136.8519    2.6823 H   0  0  0  0  0  0  0  0  0  0  0  0
   18.7754  135.1562    3.3624 H   0  0  0  0  0  0  0  0  0  0  0  0
   19.9606  136.2730    3.4835 H   0  0  0  0  0  0  0  0  0  0  0  0
   18.6743  135.4820    1.0123 H   0  0  0  0  0  0  0  0  0  0  0  0
   20.1726  137.0019   -0.0835 H   0  0  0  0  0  0  0  0  0  0  0  0
   19.1838  137.7897    0.9500 H   0  0  0  0  0  0  0  0  0  0  0  0
   20.7304  137.4820    1.3742 H   0  0  0  0  0  0  0  0  0  0  0  0
   20.7702  134.5374    0.3670 H   0  0  0  0  0  0  0  0  0  0  0  0
   19.9524  133.3955    2.9019 H   0  0  0  0  0  0  0  0  0  0  0  0
   20.8646  132.6222    1.7898 H   0  0  0  0  0  0  0  0  0  0  0  0
   19.1112  133.8150   -0.4082 H   0  0  0  0  0  0  0  0  0  0  0  0
   16.9998  132.6096   -0.3035 H   0  0  0  0  0  0  0  0  0  0  0  0
   17.8354  131.2357   -0.5883 H   0  0  0  0  0  0  0  0  0  0  0  0
   18.8266  130.7995   -2.7792 H   0  0  0  0  0  0  0  0  0  0  0  0
   18.6325  131.1776   -5.1350 H   0  0  0  0  0  0  0  0  0  0  0  0
   17.3862  133.0410   -5.9554 H   0  0  0  0  0  0  0  0  0  0  0  0
   16.3265  134.5405   -4.4232 H   0  0  0  0  0  0  0  0  0  0  0  0
   16.5152  134.1707   -2.0653 H   0  0  0  0  0  0  0  0  0  0  0  0
   22.2700  132.9355   -0.5806 H   0  0  0  0  0  0  0  0  0  0  0  0
   21.3783  132.8306   -3.1214 H   0  0  0  0  0  0  0  0  0  0  0  0
   19.5017  134.1473   -2.0625 H   0  0  0  0  0  0  0  0  0  0  0  0
   19.9547  134.3980   -3.6112 H   0  0  0  0  0  0  0  0  0  0  0  0
   21.2286  136.2921   -2.9175 H   0  0  0  0  0  0  0  0  0  0  0  0
   20.7323  136.0510   -1.3806 H   0  0  0  0  0  0  0  0  0  0  0  0
   18.5262  139.1928   -2.5689 H   0  0  0  0  0  0  0  0  0  0  0  0
   19.6354  138.7984   -1.4371 H   0  0  0  0  0  0  0  0  0  0  0  0
   20.0846  138.9611   -2.9987 H   0  0  0  0  0  0  0  0  0  0  0  0
   21.8130  136.0488    2.2119 H   0  0  0  0  0  0  0  0  0  0  0  0
   22.6176  134.9017    1.3733 H   0  0  0  0  0  0  0  0  0  0  0  0
   23.0570  134.0780    3.3036 H   0  0  0  0  0  0  0  0  0  0  0  0
   21.5363  133.4875    3.2297 H   0  0  0  0  0  0  0  0  0  0  0  0
   21.1043  135.8777    4.2162 H   0  0  0  0  0  0  0  0  0  0  0  0
   21.4859  133.4867    5.6781 H   0  0  0  0  0  0  0  0  0  0  0  0
   20.7620  134.8196    6.2832 H   0  0  0  0  0  0  0  0  0  0  0  0
   23.5573  136.1212    4.5153 H   0  0  0  0  0  0  0  0  0  0  0  0
   23.3770  135.0980    5.7752 H   0  0  0  0  0  0  0  0  0  0  0  0
   21.8797  136.8363    7.0036 H   0  0  0  0  0  0  0  0  0  0  0  0
   24.2992  133.4036   -1.5887 H   0  0  0  0  0  0  0  0  0  0  0  0
  1  2  1  0  0  0  0
  2  3  1  0  0  0  0
  3  4  1  0  0  0  0
  3  5  1  0  0  0  0
  5  6  1  0  0  0  0
  6  7  1  0  0  0  0
  7  8  1  0  0  0  0
  8  9  1  0  0  0  0
  9 10  1  0  0  0  0
 10 11  2  0  0  0  0
 11 12  1  0  0  0  0
 12 13  2  0  0  0  0
 13 14  1  0  0  0  0
 14 15  2  0  0  0  0
  8 16  1  0  0  0  0
 16 17  2  0  0  0  0
 16 18  1  0  0  0  0
 18 19  1  0  0  0  0
 19 20  1  0  0  0  0
 20 21  1  0  0  0  0
 21 22  1  0  0  0  0
 22 23  1  0  0  0  0
 22 24  2  0  0  0  0
 22 25  2  0  0  0  0
 19 26  1  0  0  0  0
 26 27  2  0  0  0  0
 26 28  1  0  0  0  0
  5 29  1  0  0  0  0
 29 30  1  0  0  0  0
 30 31  1  0  0  0  0
 31 32  1  0  0  0  0
 31 33  1  0  0  0  0
 33 34  1  0  0  0  0
 15 10  1  0  0  0  0
  1 35  1  0  0  0  0
  1 36  1  0  0  0  0
  1 37  1  0  0  0  0
  2 38  1  0  0  0  0
  2 39  1  0  0  0  0
  3 40  1  0  0  0  0
  4 41  1  0  0  0  0
  4 42  1  0  0  0  0
  4 43  1  0  0  0  0
  5 44  1  0  0  0  0
  6 45  1  0  0  0  0
  6 46  1  0  0  0  0
  8 47  1  0  0  0  0
  9 48  1  0  0  0  0
  9 49  1  0  0  0  0
 11 50  1  0  0  0  0
 12 51  1  0  0  0  0
 13 52  1  0  0  0  0
 14 53  1  0  0  0  0
 15 54  1  0  0  0  0
 18 55  1  0  0  0  0
 19 56  1  0  0  0  0
 20 57  1  0  0  0  0
 20 58  1  0  0  0  0
 21 59  1  0  0  0  0
 21 60  1  0  0  0  0
 23 61  1  0  0  0  0
 23 62  1  0  0  0  0
 23 63  1  0  0  0  0
 29 64  1  0  0  0  0
 29 65  1  0  0  0  0
 30 66  1  0  0  0  0
 30 67  1  0  0  0  0
 31 68  1  0  0  0  0
 28 74  1  0  0  0  0
 32 69  1  0  0  0  0
 32 70  1  0  0  0  0
 33 71  1  0  0  0  0
 33 72  1  0  0  0  0
 34 73  1  0  0  0  0
M  CHG  1  29   1
M  END
> <BIOSOLVEIT.HYDE_ESTIMATED_AFFINITY_LOWER_BOUNDARY [nM]>
723656465.883519

> <BIOSOLVEIT.HYDE_ESTIMATED_AFFINITY_UPPER_BOUNDARY [nM]>
71899548481.167023

> <BIOSOLVEIT.HYDE_LIGAND_EFFICIENCY range: ++, +, 0, -, -->
--

> <BIOSOLVEIT.HYDE_LIGAND_LIPOPHILIC_EFFICIENCY range: ++, +, 0, -, -->
--

> <BIOSOLVEIT.INTER_CLASH range: red, yellow, green>
green

> <BIOSOLVEIT.INTRA_CLASH range: red, yellow, green>
green

> <BIOSOLVEIT.LOGP>
0.8844

> <BIOSOLVEIT.MOLECULAR WEIGHT>
518.714

> <BIOSOLVEIT.MOLECULE_CHECKSUM>
NC44OTgyMTsw

> <BIOSOLVEIT.TORSION_QUALITY range: red, yellow, green, not rotatable>
red

> <BIOSOLVEIT.TPSA>
152.4

$$$$
1JCQ_739_2
foHydescor03192112233D 1   1.00000     0.00000     0
Hydescorer 1.1.0 fol007
 74 74  0  0  0  0            999 V2000
   17.4555  136.3856    2.4894 C   0  0  0  0  0  0  0  0  0  0  0  0
   18.6400  135.4191    2.4605 C   0  0  0  0  0  0  0  0  0  0  0  0
   19.4479  135.5120    1.1322 C   0  0  1  0  0  0  0  0  0  0  0  0
   20.0316  136.9346    1.0075 C   0  0  0  0  0  0  0  0  0  0  0  0
   20.5426  134.3884    1.0631 C   0  0  2  0  0  0  0  0  0  0  0  0
   19.9583  132.9525    1.2241 C   0  0  0  0  0  0  0  0  0  0  0  0
   18.6320  132.8643    0.7281 O   0  0  0  0  0  0  0  0  0  0  0  0
   18.6012  132.8537   -0.6915 C   0  0  2  0  0  0  0  0  0  0  0  0
   17.4751  131.9132   -1.1679 C   0  0  0  0  0  0  0  0  0  0  0  0
   17.0816  132.1213   -2.6130 C   0  0  0  0  0  0  0  0  0  0  0  0
   17.8145  131.4992   -3.6179 C   0  0  0  0  0  0  0  0  0  0  0  0
   17.4476  131.6953   -4.9450 C   0  0  0  0  0  0  0  0  0  0  0  0
   16.3614  132.5027   -5.2635 C   0  0  0  0  0  0  0  0  0  0  0  0
   15.6340  133.1212   -4.2516 C   0  0  0  0  0  0  0  0  0  0  0  0
   15.9933  132.9313   -2.9214 C   0  0  0  0  0  0  0  0  0  0  0  0
   19.9481  132.4385   -1.2433 C   0  0  0  0  0  0  0  0  0  0  0  0
   20.4078  131.3057   -0.9358 O   0  0  0  0  0  0  0  0  0  0  0  0
   20.8028  133.3650   -1.9378 N   0  0  0  0  0  0  0  0  0  0  0  0
   20.5553  133.9482   -3.2676 C   0  0  1  0  0  0  0  0  0  0  0  0
   19.3044  134.8581   -3.2809 C   0  0  0  0  0  0  0  0  0  0  0  0
   18.6280  134.9965   -4.6520 C   0  0  0  0  0  0  0  0  0  0  0  0
   18.1667  136.6904   -4.9792 S   0  0  0  0  0  0  0  0  0  0  0  0
   17.0461  136.7759   -6.3595 C   0  0  0  0  0  0  0  0  0  0  0  0
   19.3948  137.5026   -5.2806 O   0  0  0  0  0  0  0  0  0  0  0  0
   17.4892  137.2544   -3.7625 O   0  0  0  0  0  0  0  0  0  0  0  0
   21.7761  134.5822   -3.8852 C   0  0  0  0  0  0  0  0  0  0  0  0
   21.6424  135.5836   -4.6372 O   0  0  0  0  0  0  0  0  0  0  0  0
   23.0539  134.1078   -3.6152 O   0  0  0  0  0  0  0  0  0  0  0  0
   21.5864  134.6085    2.1027 N   0  3  0  0  0  0  0  0  0  0  0  0
   21.1481  134.1164    3.4237 C   0  0  0  0  0  0  0  0  0  0  0  0
   21.1186  135.2379    4.4937 C   0  0  1  0  0  0  0  0  0  0  0  0
   20.2086  134.8711    5.5878 N   0  0  0  0  0  0  0  0  0  0  0  0
   22.5170  135.6078    5.0423 C   0  0  0  0  0  0  0  0  0  0  0  0
   22.4991  137.0670    6.0730 S   0  0  0  0  0  0  0  0  0  0  0  0
   16.9687  136.2904    3.3577 H   0  0  0  0  0  0  0  0  0  0  0  0
   17.7885  137.3238    2.3949 H   0  0  0  0  0  0  0  0  0  0  0  0
   16.8347  136.1746    1.7344 H   0  0  0  0  0  0  0  0  0  0  0  0
   18.2958  134.4858    2.5627 H   0  0  0  0  0  0  0  0  0  0  0  0
   19.2496  135.6349    3.2233 H   0  0  0  0  0  0  0  0  0  0  0  0
   18.8122  135.3712    0.3732 H   0  0  0  0  0  0  0  0  0  0  0  0
   20.5535  137.0075    0.1576 H   0  0  0  0  0  0  0  0  0  0  0  0
   19.2862  137.6012    0.9993 H   0  0  0  0  0  0  0  0  0  0  0  0
   20.6336  137.1172    1.7850 H   0  0  0  0  0  0  0  0  0  0  0  0
   20.9837  134.4429    0.1673 H   0  0  0  0  0  0  0  0  0  0  0  0
   19.9577  132.7102    2.1943 H   0  0  0  0  0  0  0  0  0  0  0  0
   20.5355  132.3098    0.7204 H   0  0  0  0  0  0  0  0  0  0  0  0
   18.3986  133.7791   -1.0116 H   0  0  0  0  0  0  0  0  0  0  0  0
   16.6700  132.0691   -0.5957 H   0  0  0  0  0  0  0  0  0  0  0  0
   17.7845  130.9687   -1.0577 H   0  0  0  0  0  0  0  0  0  0  0  0
   18.5956  130.9183   -3.3891 H   0  0  0  0  0  0  0  0  0  0  0  0
   17.9684  131.2526   -5.6750 H   0  0  0  0  0  0  0  0  0  0  0  0
   16.1029  132.6388   -6.2199 H   0  0  0  0  0  0  0  0  0  0  0  0
   14.8530  133.7023   -4.4806 H   0  0  0  0  0  0  0  0  0  0  0  0
   15.4728  133.3742   -2.1914 H   0  0  0  0  0  0  0  0  0  0  0  0
   21.6450  133.6388   -1.4734 H   0  0  0  0  0  0  0  0  0  0  0  0
   20.3284  133.1749   -3.8596 H   0  0  0  0  0  0  0  0  0  0  0  0
   19.5788  135.7699   -2.9753 H   0  0  0  0  0  0  0  0  0  0  0  0
   18.6363  134.4791   -2.6406 H   0  0  0  0  0  0  0  0  0  0  0  0
   17.8068  134.4259   -4.6693 H   0  0  0  0  0  0  0  0  0  0  0  0
   19.2626  134.6887   -5.3610 H   0  0  0  0  0  0  0  0  0  0  0  0
   16.7982  137.7298   -6.5290 H   0  0  0  0  0  0  0  0  0  0  0  0
   17.4888  136.3971   -7.1722 H   0  0  0  0  0  0  0  0  0  0  0  0
   16.2218  136.2489   -6.1528 H   0  0  0  0  0  0  0  0  0  0  0  0
   21.7780  135.5877    2.1682 H   0  0  0  0  0  0  0  0  0  0  0  0
   22.4186  134.1231    1.8350 H   0  0  0  0  0  0  0  0  0  0  0  0
   21.7789  133.4016    3.7253 H   0  0  0  0  0  0  0  0  0  0  0  0
   20.2286  133.7336    3.3346 H   0  0  0  0  0  0  0  0  0  0  0  0
   20.7444  136.0559    4.0570 H   0  0  0  0  0  0  0  0  0  0  0  0
   20.7209  134.8224    6.4453 H   0  0  0  0  0  0  0  0  0  0  0  0
   19.4889  135.5608    5.6682 H   0  0  0  0  0  0  0  0  0  0  0  0
   23.1296  135.7713    4.2690 H   0  0  0  0  0  0  0  0  0  0  0  0
   22.8604  134.8400    5.5830 H   0  0  0  0  0  0  0  0  0  0  0  0
   21.9294  136.8998    6.8776 H   0  0  0  0  0  0  0  0  0  0  0  0
   23.1798  133.3399   -2.9872 H   0  0  0  0  0  0  0  0  0  0  0  0
  1  2  1  0  0  0  0
  2  3  1  0  0  0  0
  3  4  1  0  0  0  0
  3  5  1  0  0  0  0
  5  6  1  0  0  0  0
  6  7  1  0  0  0  0
  7  8  1  0  0  0  0
  8  9  1  0  0  0  0
  9 10  1  0  0  0  0
 10 11  2  0  0  0  0
 11 12  1  0  0  0  0
 12 13  2  0  0  0  0
 13 14  1  0  0  0  0
 14 15  2  0  0  0  0
  8 16  1  0  0  0  0
 16 17  2  0  0  0  0
 16 18  1  0  0  0  0
 18 19  1  0  0  0  0
 19 20  1  0  0  0  0
 20 21  1  0  0  0  0
 21 22  1  0  0  0  0
 22 23  1  0  0  0  0
 22 24  2  0  0  0  0
 22 25  2  0  0  0  0
 19 26  1  0  0  0  0
 26 27  2  0  0  0  0
 26 28  1  0  0  0  0
  5 29  1  0  0  0  0
 29 30  1  0  0  0  0
 30 31  1  0  0  0  0
 31 32  1  0  0  0  0
 31 33  1  0  0  0  0
 33 34  1  0  0  0  0
 15 10  1  0  0  0  0
  1 35  1  0  0  0  0
  1 36  1  0  0  0  0
  1 37  1  0  0  0  0
  2 38  1  0  0  0  0
  2 39  1  0  0  0  0
  3 40  1  0  0  0  0
  4 41  1  0  0  0  0
  4 42  1  0  0  0  0
  4 43  1  0  0  0  0
  5 44  1  0  0  0  0
  6 45  1  0  0  0  0
  6 46  1  0  0  0  0
  8 47  1  0  0  0  0
  9 48  1  0  0  0  0
  9 49  1  0  0  0  0
 11 50  1  0  0  0  0
 12 51  1  0  0  0  0
 13 52  1  0  0  0  0
 14 53  1  0  0  0  0
 15 54  1  0  0  0  0
 18 55  1  0  0  0  0
 19 56  1  0  0  0  0
 20 57  1  0  0  0  0
 20 58  1  0  0  0  0
 21 59  1  0  0  0  0
 21 60  1  0  0  0  0
 23 61  1  0  0  0  0
 23 62  1  0  0  0  0
 23 63  1  0  0  0  0
 29 64  1  0  0  0  0
 29 65  1  0  0  0  0
 30 66  1  0  0  0  0
 30 67  1  0  0  0  0
 31 68  1  0  0  0  0
 28 74  1  0  0  0  0
 32 69  1  0  0  0  0
 32 70  1  0  0  0  0
 33 71  1  0  0  0  0
 33 72  1  0  0  0  0
 34 73  1  0  0  0  0
M  CHG  1  29   1
M  END
> <BIOSOLVEIT.HYDE_ESTIMATED_AFFINITY_LOWER_BOUNDARY [nM]>
2394367650.835476

> <BIOSOLVEIT.HYDE_ESTIMATED_AFFINITY_UPPER_BOUNDARY [nM]>
237894582732.428131

> <BIOSOLVEIT.HYDE_LIGAND_EFFICIENCY range: ++, +, 0, -, -->
--

> <BIOSOLVEIT.HYDE_LIGAND_LIPOPHILIC_EFFICIENCY range: ++, +, 0, -, -->
--

> <BIOSOLVEIT.INTER_CLASH range: red, yellow, green>
green

> <BIOSOLVEIT.INTRA_CLASH range: red, yellow, green>
yellow

> <BIOSOLVEIT.LOGP>
0.8844

> <BIOSOLVEIT.MOLECULAR WEIGHT>
518.714

> <BIOSOLVEIT.MOLECULE_CHECKSUM>
Ny44NjQ0Mjsw

> <BIOSOLVEIT.TORSION_QUALITY range: red, yellow, green, not rotatable>
red

> <BIOSOLVEIT.TPSA>
152.4

$$$$
1JCQ_739_3
foHydescor03192112233D 1   1.00000     0.00000     0
Hydescorer 1.1.0 fol007
 73 73  0  0  0  0            999 V2000
   22.9813  139.8540   -0.9869 C   0  0  0  0  0  0  0  0  0  0  0  0
   23.1553  139.2586    0.4107 C   0  0  0  0  0  0  0  0  0  0  0  0
   22.0499  138.2159    0.7521 C   0  0  1  0  0  0  0  0  0  0  0  0
   20.6867  138.7727    0.2919 C   0  0  0  0  0  0  0  0  0  0  0  0
   22.3874  136.8164    0.1251 C   0  0  2  0  0  0  0  0  0  0  0  0
   21.2923  136.3057   -0.8595 C   0  0  0  0  0  0  0  0  0  0  0  0
   21.8087  135.3518   -1.7740 O   0  0  0  0  0  0  0  0  0  0  0  0
   21.0021  135.2497   -2.9383 C   0  0  2  0  0  0  0  0  0  0  0  0
   20.7078  133.7624   -3.2230 C   0  0  0  0  0  0  0  0  0  0  0  0
   20.1443  133.0172   -2.0341 C   0  0  0  0  0  0  0  0  0  0  0  0
   18.7832  132.7361   -1.9854 C   0  0  0  0  0  0  0  0  0  0  0  0
   18.2714  132.0508   -0.8886 C   0  0  0  0  0  0  0  0  0  0  0  0
   19.1096  131.6512    0.1461 C   0  0  0  0  0  0  0  0  0  0  0  0
   20.4701  131.9371    0.0889 C   0  0  0  0  0  0  0  0  0  0  0  0
   20.9914  132.6220   -1.0036 C   0  0  0  0  0  0  0  0  0  0  0  0
   21.6852  135.9196   -4.1112 C   0  0  0  0  0  0  0  0  0  0  0  0
   22.8607  135.5735   -4.4088 O   0  0  0  0  0  0  0  0  0  0  0  0
   21.1169  137.0680   -4.7666 N   0  0  0  0  0  0  0  0  0  0  0  0
   19.9028  137.0817   -5.6005 C   0  0  1  0  0  0  0  0  0  0  0  0
   18.6114  137.0417   -4.7500 C   0  0  0  0  0  0  0  0  0  0  0  0
   17.3890  136.4544   -5.4692 C   0  0  0  0  0  0  0  0  0  0  0  0
   15.8908  137.3074   -5.0032 S   0  0  0  0  0  0  0  0  0  0  0  0
   15.5895  137.1297   -3.2579 C   0  0  0  0  0  0  0  0  0  0  0  0
   14.7268  136.7477   -5.7716 O   0  0  0  0  0  0  0  0  0  0  0  0
   16.0400  138.7668   -5.3285 O   0  0  0  0  0  0  0  0  0  0  0  0
   19.9058  138.1618   -6.6529 C   0  0  0  0  0  0  0  0  0  0  0  0
   19.7225  139.3605   -6.3128 O   0  0  0  0  0  0  0  0  0  0  0  0
   20.1422  137.8692   -7.9904 O   0  5  0  0  0  0  0  0  0  0  0  0
   22.5943  135.7992    1.1932 N   0  3  0  0  0  0  0  0  0  0  0  0
   21.4295  135.7169    2.0964 C   0  0  0  0  0  0  0  0  0  0  0  0
   21.3256  134.3423    2.8055 C   0  0  1  0  0  0  0  0  0  0  0  0
   22.6131  133.9904    3.4209 N   0  3  0  0  0  0  0  0  0  0  0  0
   20.1810  134.2652    3.8433 C   0  0  0  0  0  0  0  0  0  0  0  0
   18.9879  132.9879    3.4735 S   0  5  0  0  0  0  0  0  0  0  0  0
   23.7110  140.5153   -1.1608 H   0  0  0  0  0  0  0  0  0  0  0  0
   23.0244  139.1233   -1.6682 H   0  0  0  0  0  0  0  0  0  0  0  0
   22.0947  140.3128   -1.0458 H   0  0  0  0  0  0  0  0  0  0  0  0
   23.1176  139.9985    1.0823 H   0  0  0  0  0  0  0  0  0  0  0  0
   24.0473  138.8090    0.4598 H   0  0  0  0  0  0  0  0  0  0  0  0
   22.0209  138.1103    1.7461 H   0  0  0  0  0  0  0  0  0  0  0  0
   19.9673  138.1118    0.5056 H   0  0  0  0  0  0  0  0  0  0  0  0
   20.5006  139.6330    0.7665 H   0  0  0  0  0  0  0  0  0  0  0  0
   20.7084  138.9342   -0.6947 H   0  0  0  0  0  0  0  0  0  0  0  0
   23.2428  136.9056   -0.3850 H   0  0  0  0  0  0  0  0  0  0  0  0
   20.9309  137.0838   -1.3733 H   0  0  0  0  0  0  0  0  0  0  0  0
   20.5552  135.8828   -0.3325 H   0  0  0  0  0  0  0  0  0  0  0  0
   20.1352  135.7176   -2.7662 H   0  0  0  0  0  0  0  0  0  0  0  0
   21.5605  133.3187   -3.4987 H   0  0  0  0  0  0  0  0  0  0  0  0
   20.0469  133.7088   -3.9715 H   0  0  0  0  0  0  0  0  0  0  0  0
   18.1800  133.0231   -2.7296 H   0  0  0  0  0  0  0  0  0  0  0  0
   17.2940  131.8441   -0.8440 H   0  0  0  0  0  0  0  0  0  0  0  0
   18.7348  131.1584    0.9314 H   0  0  0  0  0  0  0  0  0  0  0  0
   21.0731  131.6501    0.8332 H   0  0  0  0  0  0  0  0  0  0  0  0
   21.9687  132.8290   -1.0482 H   0  0  0  0  0  0  0  0  0  0  0  0
   21.5916  137.9396   -4.6442 H   0  0  0  0  0  0  0  0  0  0  0  0
   19.9164  136.2183   -6.1050 H   0  0  0  0  0  0  0  0  0  0  0  0
   18.3908  137.9772   -4.4739 H   0  0  0  0  0  0  0  0  0  0  0  0
   18.7906  136.4878   -3.9370 H   0  0  0  0  0  0  0  0  0  0  0  0
   17.3021  135.4879   -5.2279 H   0  0  0  0  0  0  0  0  0  0  0  0
   17.5194  136.5409   -6.4569 H   0  0  0  0  0  0  0  0  0  0  0  0
   14.7483  137.6124   -3.0140 H   0  0  0  0  0  0  0  0  0  0  0  0
   15.4944  136.1600   -3.0331 H   0  0  0  0  0  0  0  0  0  0  0  0
   16.3564  137.5169   -2.7461 H   0  0  0  0  0  0  0  0  0  0  0  0
   23.4023  136.0486    1.7270 H   0  0  0  0  0  0  0  0  0  0  0  0
   22.7389  134.9060    0.7674 H   0  0  0  0  0  0  0  0  0  0  0  0
   20.5977  135.8658    1.5617 H   0  0  0  0  0  0  0  0  0  0  0  0
   21.5113  136.4312    2.7914 H   0  0  0  0  0  0  0  0  0  0  0  0
   21.1355  133.6580    2.1015 H   0  0  0  0  0  0  0  0  0  0  0  0
   22.4619  133.3284    4.1549 H   0  0  0  0  0  0  0  0  0  0  0  0
   23.2146  133.5900    2.7296 H   0  0  0  0  0  0  0  0  0  0  0  0
   23.0389  134.8134    3.7969 H   0  0  0  0  0  0  0  0  0  0  0  0
   19.7087  135.1464    3.8627 H   0  0  0  0  0  0  0  0  0  0  0  0
   20.5779  134.0798    4.7422 H   0  0  0  0  0  0  0  0  0  0  0  0
  1  2  1  0  0  0  0
  2  3  1  0  0  0  0
  3  4  1  0  0  0  0
  3  5  1  0  0  0  0
  5  6  1  0  0  0  0
  6  7  1  0  0  0  0
  7  8  1  0  0  0  0
  8  9  1  0  0  0  0
  9 10  1  0  0  0  0
 10 11  2  0  0  0  0
 11 12  1  0  0  0  0
 12 13  2  0  0  0  0
 13 14  1  0  0  0  0
 14 15  2  0  0  0  0
  8 16  1  0  0  0  0
 16 17  2  0  0  0  0
 16 18  1  0  0  0  0
 18 19  1  0  0  0  0
 19 20  1  0  0  0  0
 20 21  1  0  0  0  0
 21 22  1  0  0  0  0
 22 23  1  0  0  0  0
 22 24  2  0  0  0  0
 22 25  2  0  0  0  0
 19 26  1  0  0  0  0
 26 27  2  0  0  0  0
 26 28  1  0  0  0  0
  5 29  1  0  0  0  0
 29 30  1  0  0  0  0
 30 31  1  0  0  0  0
 31 32  1  0  0  0  0
 31 33  1  0  0  0  0
 33 34  1  0  0  0  0
 15 10  1  0  0  0  0
  1 35  1  0  0  0  0
  1 36  1  0  0  0  0
  1 37  1  0  0  0  0
  2 38  1  0  0  0  0
  2 39  1  0  0  0  0
  3 40  1  0  0  0  0
  4 41  1  0  0  0  0
  4 42  1  0  0  0  0
  4 43  1  0  0  0  0
  5 44  1  0  0  0  0
  6 45  1  0  0  0  0
  6 46  1  0  0  0  0
  8 47  1  0  0  0  0
  9 48  1  0  0  0  0
  9 49  1  0  0  0  0
 11 50  1  0  0  0  0
 12 51  1  0  0  0  0
 13 52  1  0  0  0  0
 14 53  1  0  0  0  0
 15 54  1  0  0  0  0
 18 55  1  0  0  0  0
 19 56  1  0  0  0  0
 20 57  1  0  0  0  0
 20 58  1  0  0  0  0
 21 59  1  0  0  0  0
 21 60  1  0  0  0  0
 23 61  1  0  0  0  0
 23 62  1  0  0  0  0
 23 63  1  0  0  0  0
 29 64  1  0  0  0  0
 29 65  1  0  0  0  0
 30 66  1  0  0  0  0
 30 67  1  0  0  0  0
 31 68  1  0  0  0  0
 32 69  1  0  0  0  0
 32 70  1  0  0  0  0
 32 71  1  0  0  0  0
 33 72  1  0  0  0  0
 33 73  1  0  0  0  0
M  CHG  4  28  -1  29   1  32   1  34  -1
M  END
> <BIOSOLVEIT.HYDE_ESTIMATED_AFFINITY_LOWER_BOUNDARY [nM]>
52514.878247

> <BIOSOLVEIT.HYDE_ESTIMATED_AFFINITY_UPPER_BOUNDARY [nM]>
5217663.646363

> <BIOSOLVEIT.HYDE_LIGAND_EFFICIENCY range: ++, +, 0, -, -->
--

> <BIOSOLVEIT.HYDE_LIGAND_LIPOPHILIC_EFFICIENCY range: ++, +, 0, -, -->
+

> <BIOSOLVEIT.INTER_CLASH range: red, yellow, green>
green

> <BIOSOLVEIT.INTRA_CLASH range: red, yellow, green>
green

> <BIOSOLVEIT.LOGP>
-1.9302

> <BIOSOLVEIT.MOLECULAR WEIGHT>
517.706

> <BIOSOLVEIT.MOLECULE_CHECKSUM>
LTE4LjcyODc7MC41NTA4NDM=

> <BIOSOLVEIT.TORSION_QUALITY range: red, yellow, green, not rotatable>
red

> <BIOSOLVEIT.TPSA>
156.85

$$$$
1SA4_JAN_1
foHydescor03192112233D 1   1.00000     0.00000     0
Hydescorer 1.1.0 fol007
 56 60  0  0  0  0            999 V2000
   13.7276  134.6682   -5.6018 C   0  0  0  0  0  0  0  0  0  0  0  0
   13.9497  134.2458   -4.2111 N   0  0  0  0  0  0  0  0  0  0  0  0
   13.4925  133.0869   -3.6546 C   0  0  0  0  0  0  0  0  0  0  0  0
   13.8900  133.0593   -2.4016 N   0  0  0  0  0  0  0  0  0  0  0  0
   14.6035  134.1946   -2.1393 C   0  0  0  0  0  0  0  0  0  0  0  0
   14.6454  134.9486   -3.2756 C   0  0  0  0  0  0  0  0  0  0  0  0
   15.3441  136.3116   -3.4577 C   0  0  1  0  0  0  0  0  0  0  0  0
   14.6169  136.9886   -4.5573 N   0  0  0  0  0  0  0  0  0  0  0  0
   15.3095  137.1246   -2.1468 C   0  0  0  0  0  0  0  0  0  0  0  0
   16.2564  138.1230   -1.9398 C   0  0  0  0  0  0  0  0  0  0  0  0
   16.2384  138.8657   -0.7638 C   0  0  0  0  0  0  0  0  0  0  0  0
   15.2669  138.5952    0.1937 C   0  0  0  0  0  0  0  0  0  0  0  0
   15.2303  139.5366    1.7041 Cl  0  0  0  0  0  0  0  0  0  0  0  0
   14.3198  137.5981   -0.0117 C   0  0  0  0  0  0  0  0  0  0  0  0
   14.3387  136.8560   -1.1880 C   0  0  0  0  0  0  0  0  0  0  0  0
   16.8049  136.1481   -3.8235 C   0  0  0  0  0  0  0  0  0  0  0  0
   17.2825  136.6996   -5.0044 C   0  0  0  0  0  0  0  0  0  0  0  0
   18.6287  136.5233   -5.2950 C   0  0  0  0  0  0  0  0  0  0  0  0
   19.4683  135.8207   -4.4363 C   0  0  0  0  0  0  0  0  0  0  0  0
   18.9556  135.2830   -3.2640 C   0  0  0  0  0  0  0  0  0  0  0  0
   17.6119  135.4419   -2.9446 C   0  0  0  0  0  0  0  0  0  0  0  0
   19.8318  134.5435   -2.3712 C   0  0  0  0  0  0  0  0  0  0  0  0
   19.3383  133.9574   -1.1386 C   0  0  0  0  0  0  0  0  0  0  0  0
   18.5593  134.7267   -0.2809 C   0  0  0  0  0  0  0  0  0  0  0  0
   18.0904  134.1572    0.8985 C   0  0  0  0  0  0  0  0  0  0  0  0
   18.3906  132.8387    1.2242 C   0  0  0  0  0  0  0  0  0  0  0  0
   19.1714  132.0880    0.3514 C   0  0  0  0  0  0  0  0  0  0  0  0
   19.5679  130.3993    0.7505 Cl  0  0  0  0  0  0  0  0  0  0  0  0
   19.6516  132.6371   -0.8330 C   0  0  0  0  0  0  0  0  0  0  0  0
   21.1140  134.3635   -2.6319 C   0  0  0  0  0  0  0  0  0  0  0  0
   21.6683  134.9218   -3.8502 C   0  0  0  0  0  0  0  0  0  0  0  0
   22.8535  134.7561   -4.0910 O   0  0  0  0  0  0  0  0  0  0  0  0
   20.8280  135.6344   -4.7163 N   0  0  0  0  0  0  0  0  0  0  0  0
   21.4400  136.1768   -5.9410 C   0  0  0  0  0  0  0  0  0  0  0  0
   14.1660  135.5538   -5.7552 H   0  0  0  0  0  0  0  0  0  0  0  0
   14.1201  133.9898   -6.2229 H   0  0  0  0  0  0  0  0  0  0  0  0
   12.7455  134.7482   -5.7731 H   0  0  0  0  0  0  0  0  0  0  0  0
   12.9517  132.3842   -4.1170 H   0  0  0  0  0  0  0  0  0  0  0  0
   15.0236  134.4324   -1.2635 H   0  0  0  0  0  0  0  0  0  0  0  0
   13.6479  137.0611   -4.3212 H   0  0  0  0  0  0  0  0  0  0  0  0
   14.9961  137.9038   -4.6938 H   0  0  0  0  0  0  0  0  0  0  0  0
   16.9499  138.3066   -2.6366 H   0  0  0  0  0  0  0  0  0  0  0  0
   16.9155  139.5851   -0.6089 H   0  0  0  0  0  0  0  0  0  0  0  0
   13.6264  137.4148    0.6851 H   0  0  0  0  0  0  0  0  0  0  0  0
   13.6612  136.1370   -1.3426 H   0  0  0  0  0  0  0  0  0  0  0  0
   16.6799  137.2046   -5.6224 H   0  0  0  0  0  0  0  0  0  0  0  0
   19.0024  136.9091   -6.1385 H   0  0  0  0  0  0  0  0  0  0  0  0
   17.2367  135.0563   -2.1017 H   0  0  0  0  0  0  0  0  0  0  0  0
   18.3395  135.6753   -0.5087 H   0  0  0  0  0  0  0  0  0  0  0  0
   17.5296  134.7033    1.5209 H   0  0  0  0  0  0  0  0  0  0  0  0
   18.0499  132.4362    2.0739 H   0  0  0  0  0  0  0  0  0  0  0  0
   20.2131  132.0913   -1.4550 H   0  0  0  0  0  0  0  0  0  0  0  0
   21.6936  133.8503   -1.9991 H   0  0  0  0  0  0  0  0  0  0  0  0
   20.7462  136.6611   -6.4740 H   0  0  0  0  0  0  0  0  0  0  0  0
   22.1734  136.8104   -5.6948 H   0  0  0  0  0  0  0  0  0  0  0  0
   21.8159  135.4273   -6.4859 H   0  0  0  0  0  0  0  0  0  0  0  0
  1  2  1  0  0  0  0
  2  3  1  0  0  0  0
  3  4  2  0  0  0  0
  4  5  1  0  0  0  0
  5  6  2  0  0  0  0
  6  7  1  0  0  0  0
  7  8  1  0  0  0  0
  7  9  1  0  0  0  0
  9 10  2  0  0  0  0
 10 11  1  0  0  0  0
 11 12  2  0  0  0  0
 12 13  1  0  0  0  0
 12 14  1  0  0  0  0
 14 15  2  0  0  0  0
  7 16  1  0  0  0  0
 16 17  2  0  0  0  0
 17 18  1  0  0  0  0
 18 19  2  0  0  0  0
 19 20  1  0  0  0  0
 20 21  2  0  0  0  0
 20 22  1  0  0  0  0
 22 23  1  0  0  0  0
 23 24  2  0  0  0  0
 24 25  1  0  0  0  0
 25 26  2  0  0  0  0
 26 27  1  0  0  0  0
 27 28  1  0  0  0  0
 27 29  2  0  0  0  0
 22 30  2  0  0  0  0
 30 31  1  0  0  0  0
 31 32  2  0  0  0  0
 31 33  1  0  0  0  0
 33 34  1  0  0  0  0
  6  2  1  0  0  0  0
 15  9  1  0  0  0  0
 21 16  1  0  0  0  0
 29 23  1  0  0  0  0
 33 19  1  0  0  0  0
  1 35  1  0  0  0  0
  1 36  1  0  0  0  0
  1 37  1  0  0  0  0
  3 38  1  0  0  0  0
  5 39  1  0  0  0  0
 34 56  1  0  0  0  0
  8 40  1  0  0  0  0
  8 41  1  0  0  0  0
 10 42  1  0  0  0  0
 11 43  1  0  0  0  0
 14 44  1  0  0  0  0
 15 45  1  0  0  0  0
 17 46  1  0  0  0  0
 18 47  1  0  0  0  0
 21 48  1  0  0  0  0
 24 49  1  0  0  0  0
 25 50  1  0  0  0  0
 26 51  1  0  0  0  0
 29 52  1  0  0  0  0
 30 53  1  0  0  0  0
 34 54  1  0  0  0  0
 34 55  1  0  0  0  0
M  END
> <BIOSOLVEIT.HYDE_ESTIMATED_AFFINITY_LOWER_BOUNDARY [nM]>
147481.158394

> <BIOSOLVEIT.HYDE_ESTIMATED_AFFINITY_UPPER_BOUNDARY [nM]>
14653125.064078

> <BIOSOLVEIT.HYDE_LIGAND_EFFICIENCY range: ++, +, 0, -, -->
--

> <BIOSOLVEIT.HYDE_LIGAND_LIPOPHILIC_EFFICIENCY range: ++, +, 0, -, -->
--

> <BIOSOLVEIT.INTER_CLASH range: red, yellow, green>
yellow

> <BIOSOLVEIT.INTRA_CLASH range: red, yellow, green>
red

> <BIOSOLVEIT.LOGP>
5.3856

> <BIOSOLVEIT.MOLECULAR WEIGHT>
489.404

> <BIOSOLVEIT.MOLECULE_CHECKSUM>
LTE2LjE2ODk7MC40NzU1NTU=

> <BIOSOLVEIT.TORSION_QUALITY range: red, yellow, green, not rotatable>
green

> <BIOSOLVEIT.TPSA>
64.15

$$$$
1SA4_JAN_2
foHydescor03192112233D 1   1.00000     0.00000     0
Hydescorer 1.1.0 fol007
 57 61  0  0  0  0            999 V2000
   20.0502  137.7834   -4.8374 C   0  0  0  0  0  0  0  0  0  0  0  0
   21.0271  136.7865   -4.3748 N   0  0  0  0  0  0  0  0  0  0  0  0
   21.5898  135.8135   -5.1481 C   0  0  0  0  0  0  0  0  0  0  0  0
   22.4103  135.1217   -4.3886 N   0  0  0  0  0  0  0  0  0  0  0  0
   22.3846  135.6394   -3.1244 C   0  0  0  0  0  0  0  0  0  0  0  0
   21.5140  136.6897   -3.1072 C   0  0  0  0  0  0  0  0  0  0  0  0
   21.1635  137.5826   -1.8994 C   0  0  1  0  0  0  0  0  0  0  0  0
   22.3661  138.4137   -1.6558 N   0  3  0  0  0  0  0  0  0  0  0  0
   19.9130  138.4369   -2.1942 C   0  0  0  0  0  0  0  0  0  0  0  0
   20.0695  139.7729   -2.5504 C   0  0  0  0  0  0  0  0  0  0  0  0
   18.9523  140.5564   -2.8203 C   0  0  0  0  0  0  0  0  0  0  0  0
   17.6870  139.9871   -2.7280 C   0  0  0  0  0  0  0  0  0  0  0  0
   16.2471  140.9762   -3.0699 Cl  0  0  0  0  0  0  0  0  0  0  0  0
   17.5286  138.6521   -2.3724 C   0  0  0  0  0  0  0  0  0  0  0  0
   18.6465  137.8695   -2.1029 C   0  0  0  0  0  0  0  0  0  0  0  0
   20.8418  136.7602   -0.6689 C   0  0  0  0  0  0  0  0  0  0  0  0
   21.1502  137.2584    0.5895 C   0  0  0  0  0  0  0  0  0  0  0  0
   20.8351  136.4674    1.6863 C   0  0  0  0  0  0  0  0  0  0  0  0
   20.2332  135.2226    1.5315 C   0  0  0  0  0  0  0  0  0  0  0  0
   19.9393  134.7567    0.2577 C   0  0  0  0  0  0  0  0  0  0  0  0
   20.2425  135.5246   -0.8607 C   0  0  0  0  0  0  0  0  0  0  0  0
   19.3169  133.4533    0.0969 C   0  0  0  0  0  0  0  0  0  0  0  0
   18.9987  132.9226   -1.2147 C   0  0  0  0  0  0  0  0  0  0  0  0
   20.0211  132.7215   -2.1360 C   0  0  0  0  0  0  0  0  0  0  0  0
   19.7072  132.2121   -3.3921 C   0  0  0  0  0  0  0  0  0  0  0  0
   18.3936  131.9054   -3.7309 C   0  0  0  0  0  0  0  0  0  0  0  0
   17.3873  132.1146   -2.7936 C   0  0  0  0  0  0  0  0  0  0  0  0
   15.6997  131.7295   -3.2082 Cl  0  0  0  0  0  0  0  0  0  0  0  0
   17.6780  132.6236   -1.5321 C   0  0  0  0  0  0  0  0  0  0  0  0
   19.0122  132.6861    1.1278 C   0  0  0  0  0  0  0  0  0  0  0  0
   19.3081  133.1581    2.4668 C   0  0  0  0  0  0  0  0  0  0  0  0
   19.0258  132.4496    3.4197 O   0  0  0  0  0  0  0  0  0  0  0  0
   19.9100  134.4134    2.6284 N   0  0  0  0  0  0  0  0  0  0  0  0
   20.1926  134.8435    4.0081 C   0  0  0  0  0  0  0  0  0  0  0  0
   19.7967  138.3800   -4.0759 H   0  0  0  0  0  0  0  0  0  0  0  0
   20.4543  138.3311   -5.5699 H   0  0  0  0  0  0  0  0  0  0  0  0
   19.2351  137.3169   -5.1810 H   0  0  0  0  0  0  0  0  0  0  0  0
   21.4102  135.6549   -6.1190 H   0  0  0  0  0  0  0  0  0  0  0  0
   22.9138  135.3052   -2.3444 H   0  0  0  0  0  0  0  0  0  0  0  0
   22.1268  139.1796   -1.0589 H   0  0  0  0  0  0  0  0  0  0  0  0
   23.0723  137.8577   -1.2175 H   0  0  0  0  0  0  0  0  0  0  0  0
   22.7107  138.7647   -2.5265 H   0  0  0  0  0  0  0  0  0  0  0  0
   20.9853  140.1698   -2.6124 H   0  0  0  0  0  0  0  0  0  0  0  0
   19.0577  141.5170   -3.0774 H   0  0  0  0  0  0  0  0  0  0  0  0
   16.6128  138.2554   -2.3105 H   0  0  0  0  0  0  0  0  0  0  0  0
   18.5407  136.9089   -1.8461 H   0  0  0  0  0  0  0  0  0  0  0  0
   21.5829  138.1529    0.7019 H   0  0  0  0  0  0  0  0  0  0  0  0
   21.0451  136.7990    2.6060 H   0  0  0  0  0  0  0  0  0  0  0  0
   20.0336  135.1940   -1.7810 H   0  0  0  0  0  0  0  0  0  0  0  0
   20.9678  132.9399   -1.8991 H   0  0  0  0  0  0  0  0  0  0  0  0
   20.4362  132.0644   -4.0605 H   0  0  0  0  0  0  0  0  0  0  0  0
   18.1756  131.5396   -4.6357 H   0  0  0  0  0  0  0  0  0  0  0  0
   16.9490  132.7721   -0.8639 H   0  0  0  0  0  0  0  0  0  0  0  0
   18.5841  131.7934    0.9872 H   0  0  0  0  0  0  0  0  0  0  0  0
   20.6188  135.7481    3.9946 H   0  0  0  0  0  0  0  0  0  0  0  0
   19.3381  134.8853    4.5258 H   0  0  0  0  0  0  0  0  0  0  0  0
   20.8128  134.1892    4.4408 H   0  0  0  0  0  0  0  0  0  0  0  0
  1  2  1  0  0  0  0
  2  3  1  0  0  0  0
  3  4  2  0  0  0  0
  4  5  1  0  0  0  0
  5  6  2  0  0  0  0
  6  7  1  0  0  0  0
  7  8  1  0  0  0  0
  7  9  1  0  0  0  0
  9 10  2  0  0  0  0
 10 11  1  0  0  0  0
 11 12  2  0  0  0  0
 12 13  1  0  0  0  0
 12 14  1  0  0  0  0
 14 15  2  0  0  0  0
  7 16  1  0  0  0  0
 16 17  2  0  0  0  0
 17 18  1  0  0  0  0
 18 19  2  0  0  0  0
 19 20  1  0  0  0  0
 20 21  2  0  0  0  0
 20 22  1  0  0  0  0
 22 23  1  0  0  0  0
 23 24  2  0  0  0  0
 24 25  1  0  0  0  0
 25 26  2  0  0  0  0
 26 27  1  0  0  0  0
 27 28  1  0  0  0  0
 27 29  2  0  0  0  0
 22 30  2  0  0  0  0
 30 31  1  0  0  0  0
 31 32  2  0  0  0  0
 31 33  1  0  0  0  0
 33 34  1  0  0  0  0
  6  2  1  0  0  0  0
 15  9  1  0  0  0  0
 21 16  1  0  0  0  0
 29 23  1  0  0  0  0
 33 19  1  0  0  0  0
  1 35  1  0  0  0  0
  1 36  1  0  0  0  0
  1 37  1  0  0  0  0
  3 38  1  0  0  0  0
  5 39  1  0  0  0  0
  8 40  1  0  0  0  0
  8 41  1  0  0  0  0
  8 42  1  0  0  0  0
 10 43  1  0  0  0  0
 11 44  1  0  0  0  0
 14 45  1  0  0  0  0
 15 46  1  0  0  0  0
 17 47  1  0  0  0  0
 18 48  1  0  0  0  0
 21 49  1  0  0  0  0
 24 50  1  0  0  0  0
 25 51  1  0  0  0  0
 26 52  1  0  0  0  0
 29 53  1  0  0  0  0
 30 54  1  0  0  0  0
 34 55  1  0  0  0  0
 34 56  1  0  0  0  0
 34 57  1  0  0  0  0
M  CHG  1   8   1
M  END
> <BIOSOLVEIT.HYDE_ESTIMATED_AFFINITY_LOWER_BOUNDARY [nM]>
17.116811

> <BIOSOLVEIT.HYDE_ESTIMATED_AFFINITY_UPPER_BOUNDARY [nM]>
1700.656368

> <BIOSOLVEIT.HYDE_LIGAND_EFFICIENCY range: ++, +, 0, -, -->
-

> <BIOSOLVEIT.HYDE_LIGAND_LIPOPHILIC_EFFICIENCY range: ++, +, 0, -, -->
-

> <BIOSOLVEIT.INTER_CLASH range: red, yellow, green>
green

> <BIOSOLVEIT.INTRA_CLASH range: red, yellow, green>
red

> <BIOSOLVEIT.LOGP>
4.6688

> <BIOSOLVEIT.MOLECULAR WEIGHT>
490.412

> <BIOSOLVEIT.MOLECULE_CHECKSUM>
LTM4LjYzMTc7MS4xMzYyMw==

> <BIOSOLVEIT.TORSION_QUALITY range: red, yellow, green, not rotatable>
yellow

> <BIOSOLVEIT.TPSA>
65.77

$$$$
1SA4_JAN_3
foHydescor03192112233D 1   1.00000     0.00000     0
Hydescorer 1.1.0 fol007
 57 61  0  0  0  0            999 V2000
   20.2566  137.5424   -5.9435 C   0  0  0  0  0  0  0  0  0  0  0  0
   21.1097  136.7169   -5.0758 N   0  0  0  0  0  0  0  0  0  0  0  0
   21.9132  135.6976   -5.4966 C   0  0  0  0  0  0  0  0  0  0  0  0
   22.5184  135.2014   -4.4399 N   0  0  0  0  0  0  0  0  0  0  0  0
   22.1127  135.8924   -3.3332 C   0  0  0  0  0  0  0  0  0  0  0  0
   21.2235  136.8499   -3.7258 C   0  0  0  0  0  0  0  0  0  0  0  0
   20.5153  137.8578   -2.8356 C   0  0  1  0  0  0  0  0  0  0  0  0
   21.4837  138.9612   -2.6338 N   0  3  0  0  0  0  0  0  0  0  0  0
   19.2054  138.3426   -3.4913 C   0  0  0  0  0  0  0  0  0  0  0  0
   19.1263  139.6465   -3.9713 C   0  0  0  0  0  0  0  0  0  0  0  0
   17.9531  140.0987   -4.5660 C   0  0  0  0  0  0  0  0  0  0  0  0
   16.8695  139.2337   -4.6711 C   0  0  0  0  0  0  0  0  0  0  0  0
   15.3605  139.7972   -5.4293 Cl  0  0  0  0  0  0  0  0  0  0  0  0
   16.9468  137.9305   -4.1922 C   0  0  0  0  0  0  0  0  0  0  0  0
   18.1205  137.4792   -3.5979 C   0  0  0  0  0  0  0  0  0  0  0  0
   20.1196  137.2380   -1.4668 C   0  0  0  0  0  0  0  0  0  0  0  0
   20.2478  137.9928   -0.3089 C   0  0  0  0  0  0  0  0  0  0  0  0
   19.8808  137.3948    0.8893 C   0  0  0  0  0  0  0  0  0  0  0  0
   19.4029  136.0888    0.9294 C   0  0  0  0  0  0  0  0  0  0  0  0
   19.2882  135.3640   -0.2487 C   0  0  0  0  0  0  0  0  0  0  0  0
   19.6477  135.9342   -1.4644 C   0  0  0  0  0  0  0  0  0  0  0  0
   18.7953  133.9976   -0.2046 C   0  0  0  0  0  0  0  0  0  0  0  0
   18.6659  133.1994   -1.4098 C   0  0  0  0  0  0  0  0  0  0  0  0
   19.8106  132.8153   -2.1003 C   0  0  0  0  0  0  0  0  0  0  0  0
   19.6777  132.0502   -3.2547 C   0  0  0  0  0  0  0  0  0  0  0  0
   18.4232  131.6701   -3.7196 C   0  0  0  0  0  0  0  0  0  0  0  0
   17.2921  132.0656   -3.0129 C   0  0  0  0  0  0  0  0  0  0  0  0
   15.6775  131.5904   -3.5918 Cl  0  0  0  0  0  0  0  0  0  0  0  0
   17.4013  132.8312   -1.8566 C   0  0  0  0  0  0  0  0  0  0  0  0
   18.4438  133.4114    0.9255 C   0  0  0  0  0  0  0  0  0  0  0  0
   18.5529  134.1547    2.1660 C   0  0  0  0  0  0  0  0  0  0  0  0
   18.2274  133.6134    3.2104 O   0  0  0  0  0  0  0  0  0  0  0  0
   19.0293  135.4722    2.1305 N   0  0  0  0  0  0  0  0  0  0  0  0
   19.1242  136.1807    3.4179 C   0  0  0  0  0  0  0  0  0  0  0  0
   19.7707  138.2175   -5.3884 H   0  0  0  0  0  0  0  0  0  0  0  0
   20.8243  138.0127   -6.6191 H   0  0  0  0  0  0  0  0  0  0  0  0
   19.5945  136.9583   -6.4131 H   0  0  0  0  0  0  0  0  0  0  0  0
   22.0224  135.3839   -6.4399 H   0  0  0  0  0  0  0  0  0  0  0  0
   22.4159  135.7248   -2.3951 H   0  0  0  0  0  0  0  0  0  0  0  0
   20.9998  139.7745   -2.3106 H   0  0  0  0  0  0  0  0  0  0  0  0
   22.1648  138.6869   -1.9549 H   0  0  0  0  0  0  0  0  0  0  0  0
   21.9399  139.1668   -3.4996 H   0  0  0  0  0  0  0  0  0  0  0  0
   19.9130  140.2582   -3.8888 H   0  0  0  0  0  0  0  0  0  0  0  0
   17.8897  141.0342   -4.9135 H   0  0  0  0  0  0  0  0  0  0  0  0
   16.1599  137.3188   -4.2751 H   0  0  0  0  0  0  0  0  0  0  0  0
   18.1836  136.5435   -3.2507 H   0  0  0  0  0  0  0  0  0  0  0  0
   20.5912  138.9316   -0.3367 H   0  0  0  0  0  0  0  0  0  0  0  0
   19.9618  137.9132    1.7405 H   0  0  0  0  0  0  0  0  0  0  0  0
   19.5678  135.4168   -2.3164 H   0  0  0  0  0  0  0  0  0  0  0  0
   20.7158  133.0851   -1.7718 H   0  0  0  0  0  0  0  0  0  0  0  0
   20.4954  131.7696   -3.7572 H   0  0  0  0  0  0  0  0  0  0  0  0
   18.3355  131.1202   -4.5502 H   0  0  0  0  0  0  0  0  0  0  0  0
   16.5835  133.1125   -1.3546 H   0  0  0  0  0  0  0  0  0  0  0  0
   18.1078  132.4696    0.9258 H   0  0  0  0  0  0  0  0  0  0  0  0
   19.4742  137.1049    3.2648 H   0  0  0  0  0  0  0  0  0  0  0  0
   18.2178  136.2328    3.8374 H   0  0  0  0  0  0  0  0  0  0  0  0
   19.7449  135.6857    4.0259 H   0  0  0  0  0  0  0  0  0  0  0  0
  1  2  1  0  0  0  0
  2  3  1  0  0  0  0
  3  4  2  0  0  0  0
  4  5  1  0  0  0  0
  5  6  2  0  0  0  0
  6  7  1  0  0  0  0
  7  8  1  0  0  0  0
  7  9  1  0  0  0  0
  9 10  2  0  0  0  0
 10 11  1  0  0  0  0
 11 12  2  0  0  0  0
 12 13  1  0  0  0  0
 12 14  1  0  0  0  0
 14 15  2  0  0  0  0
  7 16  1  0  0  0  0
 16 17  2  0  0  0  0
 17 18  1  0  0  0  0
 18 19  2  0  0  0  0
 19 20  1  0  0  0  0
 20 21  2  0  0  0  0
 20 22  1  0  0  0  0
 22 23  1  0  0  0  0
 23 24  2  0  0  0  0
 24 25  1  0  0  0  0
 25 26  2  0  0  0  0
 26 27  1  0  0  0  0
 27 28  1  0  0  0  0
 27 29  2  0  0  0  0
 22 30  2  0  0  0  0
 30 31  1  0  0  0  0
 31 32  2  0  0  0  0
 31 33  1  0  0  0  0
 33 34  1  0  0  0  0
  6  2  1  0  0  0  0
 15  9  1  0  0  0  0
 21 16  1  0  0  0  0
 29 23  1  0  0  0  0
 33 19  1  0  0  0  0
  1 35  1  0  0  0  0
  1 36  1  0  0  0  0
  1 37  1  0  0  0  0
  3 38  1  0  0  0  0
  5 39  1  0  0  0  0
  8 40  1  0  0  0  0
  8 41  1  0  0  0  0
  8 42  1  0  0  0  0
 10 43  1  0  0  0  0
 11 44  1  0  0  0  0
 14 45  1  0  0  0  0
 15 46  1  0  0  0  0
 17 47  1  0  0  0  0
 18 48  1  0  0  0  0
 21 49  1  0  0  0  0
 24 50  1  0  0  0  0
 25 51  1  0  0  0  0
 26 52  1  0  0  0  0
 29 53  1  0  0  0  0
 30 54  1  0  0  0  0
 34 55  1  0  0  0  0
 34 56  1  0  0  0  0
 34 57  1  0  0  0  0
M  CHG  1   8   1
M  END
> <BIOSOLVEIT.HYDE_ESTIMATED_AFFINITY_LOWER_BOUNDARY [nM]>
22018.101193

> <BIOSOLVEIT.HYDE_ESTIMATED_AFFINITY_UPPER_BOUNDARY [nM]>
2187628.534887

> <BIOSOLVEIT.HYDE_LIGAND_EFFICIENCY range: ++, +, 0, -, -->
--

> <BIOSOLVEIT.HYDE_LIGAND_LIPOPHILIC_EFFICIENCY range: ++, +, 0, -, -->
--

> <BIOSOLVEIT.INTER_CLASH range: red, yellow, green>
red

> <BIOSOLVEIT.INTRA_CLASH range: red, yellow, green>
red

> <BIOSOLVEIT.LOGP>
4.6688

> <BIOSOLVEIT.MOLECULAR WEIGHT>
490.412

> <BIOSOLVEIT.MOLECULE_CHECKSUM>
LTIwLjg4MzU7MC42MTQyMTk=

> <BIOSOLVEIT.TORSION_QUALITY range: red, yellow, green, not rotatable>
green

> <BIOSOLVEIT.TPSA>
65.77

$$$$
1MZC_BNE_1
foHydescor03192112233D 1   1.00000     0.00000     0
Hydescorer 1.1.0 fol007
 70 73  0  0  0  0            999 V2000
   13.6220  131.4826   -3.4658 C   0  0  0  0  0  0  0  0  0  0  0  0
   14.0101  132.7397   -2.6729 C   0  0  0  0  0  0  0  0  0  0  0  0
   14.9618  133.6759   -3.3926 C   0  0  1  0  0  0  0  0  0  0  0  0
   16.2670  132.9334   -3.6244 C   0  0  0  0  0  0  0  0  0  0  0  0
   16.6225  132.5375   -4.9096 C   0  0  0  0  0  0  0  0  0  0  0  0
   17.8220  131.8588   -5.0983 C   0  0  0  0  0  0  0  0  0  0  0  0
   18.6611  131.5746   -4.0259 C   0  0  0  0  0  0  0  0  0  0  0  0
   18.2863  131.9792   -2.7489 C   0  0  0  0  0  0  0  0  0  0  0  0
   19.0951  131.7068   -1.7022 O   0  0  0  0  0  0  0  0  0  0  0  0
   19.7024  132.6657   -0.8746 C   0  0  0  0  0  0  0  0  0  0  0  0
   20.1229  133.8651   -1.4398 C   0  0  0  0  0  0  0  0  0  0  0  0
   20.7254  134.8191   -0.6263 C   0  0  0  0  0  0  0  0  0  0  0  0
   21.1890  136.1335   -1.2335 C   0  0  1  0  0  0  0  0  0  0  0  0
   20.0281  137.1449   -1.0652 C   0  0  0  0  0  0  0  0  0  0  0  0
   22.3795  136.6835   -0.5539 N   0  3  0  0  0  0  0  0  0  0  0  0
   21.5306  135.9369   -2.7173 C   0  0  0  0  0  0  0  0  0  0  0  0
   22.7721  135.6884   -3.2246 C   0  0  0  0  0  0  0  0  0  0  0  0
   22.6341  135.5789   -4.5766 N   0  3  0  0  0  0  0  0  0  0  0  0
   21.3669  135.7525   -4.8854 C   0  0  0  0  0  0  0  0  0  0  0  0
   20.6487  135.9713   -3.7511 N   0  0  0  0  0  0  0  0  0  0  0  0
   19.2006  136.2089   -3.6587 C   0  0  0  0  0  0  0  0  0  0  0  0
   20.9099  134.5882    0.7331 C   0  0  0  0  0  0  0  0  0  0  0  0
   20.4853  133.3853    1.2873 C   0  0  0  0  0  0  0  0  0  0  0  0
   19.8813  132.4239    0.4835 C   0  0  0  0  0  0  0  0  0  0  0  0
   19.4173  131.1092    1.0892 C   0  0  0  0  0  0  0  0  0  0  0  0
   19.0638  130.1081    1.5495 N   0  0  0  0  0  0  0  0  0  0  0  0
   17.0914  132.6592   -2.5378 C   0  0  0  0  0  0  0  0  0  0  0  0
   14.3226  133.8732   -4.7690 C   0  0  0  0  0  0  0  0  0  0  0  0
   14.9957  134.8649   -5.7211 C   0  0  0  0  0  0  0  0  0  0  0  0
   14.7598  136.3350   -5.3896 C   0  0  0  0  0  0  0  0  0  0  0  0
   15.5614  136.8890   -4.1998 C   0  0  0  0  0  0  0  0  0  0  0  0
   15.4822  136.2539   -2.8547 N   0  0  0  0  0  0  0  0  0  0  0  0
   15.6966  137.1853   -1.7374 C   0  0  0  0  0  0  0  0  0  0  0  0
   15.2275  134.8973   -2.4970 C   0  0  0  0  0  0  0  0  0  0  0  0
   15.2159  134.6667   -1.3001 O   0  0  0  0  0  0  0  0  0  0  0  0
   12.9961  130.9248   -2.9208 H   0  0  0  0  0  0  0  0  0  0  0  0
   13.1729  131.7514   -4.3179 H   0  0  0  0  0  0  0  0  0  0  0  0
   14.4442  130.9533   -3.6749 H   0  0  0  0  0  0  0  0  0  0  0  0
   14.4450  132.4483   -1.8208 H   0  0  0  0  0  0  0  0  0  0  0  0
   13.1737  133.2464   -2.4638 H   0  0  0  0  0  0  0  0  0  0  0  0
   16.0248  132.7378   -5.6861 H   0  0  0  0  0  0  0  0  0  0  0  0
   18.0852  131.5708   -6.0191 H   0  0  0  0  0  0  0  0  0  0  0  0
   19.5216  131.0862   -4.1709 H   0  0  0  0  0  0  0  0  0  0  0  0
   19.9940  134.0388   -2.4161 H   0  0  0  0  0  0  0  0  0  0  0  0
   20.2951  138.0266   -1.4541 H   0  0  0  0  0  0  0  0  0  0  0  0
   19.2170  136.8032   -1.5398 H   0  0  0  0  0  0  0  0  0  0  0  0
   19.8226  137.2579   -0.0930 H   0  0  0  0  0  0  0  0  0  0  0  0
   22.6884  137.5042   -1.0346 H   0  0  0  0  0  0  0  0  0  0  0  0
   22.1460  136.9179    0.3898 H   0  0  0  0  0  0  0  0  0  0  0  0
   23.1100  136.0008   -0.5567 H   0  0  0  0  0  0  0  0  0  0  0  0
   23.6217  135.6029   -2.7041 H   0  0  0  0  0  0  0  0  0  0  0  0
   20.9899  135.7274   -5.8113 H   0  0  0  0  0  0  0  0  0  0  0  0
   18.9444  136.3383   -2.7008 H   0  0  0  0  0  0  0  0  0  0  0  0
   18.9632  137.0281   -4.1807 H   0  0  0  0  0  0  0  0  0  0  0  0
   18.7092  135.4219   -4.0318 H   0  0  0  0  0  0  0  0  0  0  0  0
   21.3445  135.2820    1.3075 H   0  0  0  0  0  0  0  0  0  0  0  0
   20.6143  133.2115    2.2636 H   0  0  0  0  0  0  0  0  0  0  0  0
   16.8284  132.9473   -1.6170 H   0  0  0  0  0  0  0  0  0  0  0  0
   13.3847  134.1874   -4.6221 H   0  0  0  0  0  0  0  0  0  0  0  0
   14.3084  132.9828   -5.2239 H   0  0  0  0  0  0  0  0  0  0  0  0
   14.6482  134.6948   -6.6433 H   0  0  0  0  0  0  0  0  0  0  0  0
   15.9810  134.6959   -5.6998 H   0  0  0  0  0  0  0  0  0  0  0  0
   13.7877  136.4516   -5.1858 H   0  0  0  0  0  0  0  0  0  0  0  0
   14.9980  136.8739   -6.1976 H   0  0  0  0  0  0  0  0  0  0  0  0
   15.2738  137.8395   -4.0820 H   0  0  0  0  0  0  0  0  0  0  0  0
   16.5239  136.8629   -4.4695 H   0  0  0  0  0  0  0  0  0  0  0  0
   15.6288  136.6890   -0.8720 H   0  0  0  0  0  0  0  0  0  0  0  0
   16.6048  137.5964   -1.8157 H   0  0  0  0  0  0  0  0  0  0  0  0
   15.0019  137.9042   -1.7647 H   0  0  0  0  0  0  0  0  0  0  0  0
   23.3729  135.3969   -5.2254 H   0  0  0  0  0  0  0  0  0  0  0  0
  1  2  1  0  0  0  0
  2  3  1  0  0  0  0
  3  4  1  0  0  0  0
  4  5  2  0  0  0  0
  5  6  1  0  0  0  0
  6  7  2  0  0  0  0
  7  8  1  0  0  0  0
  8  9  1  0  0  0  0
  9 10  1  0  0  0  0
 10 11  2  0  0  0  0
 11 12  1  0  0  0  0
 12 13  1  0  0  0  0
 13 14  1  0  0  0  0
 13 15  1  0  0  0  0
 13 16  1  0  0  0  0
 16 17  2  0  0  0  0
 17 18  1  0  0  0  0
 18 19  2  0  0  0  0
 19 20  1  0  0  0  0
 20 21  1  0  0  0  0
 12 22  2  0  0  0  0
 22 23  1  0  0  0  0
 23 24  2  0  0  0  0
 24 25  1  0  0  0  0
 25 26  3  0  0  0  0
  8 27  2  0  0  0  0
  3 28  1  0  0  0  0
 28 29  1  0  0  0  0
 29 30  1  0  0  0  0
 30 31  1  0  0  0  0
 31 32  1  0  0  0  0
 32 33  1  0  0  0  0
 32 34  1  0  0  0  0
 34 35  2  0  0  0  0
 34  3  1  0  0  0  0
 27  4  1  0  0  0  0
 24 10  1  0  0  0  0
 20 16  1  0  0  0  0
  1 36  1  0  0  0  0
  1 37  1  0  0  0  0
  1 38  1  0  0  0  0
  2 39  1  0  0  0  0
  2 40  1  0  0  0  0
  5 41  1  0  0  0  0
  6 42  1  0  0  0  0
  7 43  1  0  0  0  0
 11 44  1  0  0  0  0
 14 45  1  0  0  0  0
 14 46  1  0  0  0  0
 14 47  1  0  0  0  0
 15 48  1  0  0  0  0
 15 49  1  0  0  0  0
 15 50  1  0  0  0  0
 17 51  1  0  0  0  0
 19 52  1  0  0  0  0
 21 53  1  0  0  0  0
 21 54  1  0  0  0  0
 21 55  1  0  0  0  0
 22 56  1  0  0  0  0
 23 57  1  0  0  0  0
 27 58  1  0  0  0  0
 28 59  1  0  0  0  0
 28 60  1  0  0  0  0
 29 61  1  0  0  0  0
 29 62  1  0  0  0  0
 30 63  1  0  0  0  0
 30 64  1  0  0  0  0
 31 65  1  0  0  0  0
 31 66  1  0  0  0  0
 33 67  1  0  0  0  0
 33 68  1  0  0  0  0
 33 69  1  0  0  0  0
 18 70  1  0  0  0  0
M  CHG  2  15   1  18   1
M  END
> <BIOSOLVEIT.HYDE_ESTIMATED_AFFINITY_LOWER_BOUNDARY [nM]>
29513.566019

> <BIOSOLVEIT.HYDE_ESTIMATED_AFFINITY_UPPER_BOUNDARY [nM]>
2932347.282026

> <BIOSOLVEIT.HYDE_LIGAND_EFFICIENCY range: ++, +, 0, -, -->
--

> <BIOSOLVEIT.HYDE_LIGAND_LIPOPHILIC_EFFICIENCY range: ++, +, 0, -, -->
--

> <BIOSOLVEIT.INTER_CLASH range: red, yellow, green>
green

> <BIOSOLVEIT.INTRA_CLASH range: red, yellow, green>
red

> <BIOSOLVEIT.LOGP>
3.29868

> <BIOSOLVEIT.MOLECULAR WEIGHT>
473.618

> <BIOSOLVEIT.MOLECULE_CHECKSUM>
LTIwLjE1NzI7MC41NzU5MTk=

> <BIOSOLVEIT.TORSION_QUALITY range: red, yellow, green, not rotatable>
green

> <BIOSOLVEIT.TPSA>
100.04

$$$$
1MZC_BNE_2
foHydescor03192112233D 1   1.00000     0.00000     0
Hydescorer 1.1.0 fol007
 69 72  0  0  0  0            999 V2000
   14.7821  136.0662   -1.8733 C   0  0  0  0  0  0  0  0  0  0  0  0
   14.5060  136.5350   -3.3099 C   0  0  0  0  0  0  0  0  0  0  0  0
   14.9636  135.5740   -4.3908 C   0  0  1  0  0  0  0  0  0  0  0  0
   14.6619  134.1672   -3.9000 C   0  0  0  0  0  0  0  0  0  0  0  0
   13.3696  133.6608   -3.9939 C   0  0  0  0  0  0  0  0  0  0  0  0
   13.1164  132.3709   -3.5382 C   0  0  0  0  0  0  0  0  0  0  0  0
   14.1316  131.5906   -2.9952 C   0  0  0  0  0  0  0  0  0  0  0  0
   15.4166  132.1165   -2.9105 C   0  0  0  0  0  0  0  0  0  0  0  0
   16.4078  131.3653   -2.3841 O   0  0  0  0  0  0  0  0  0  0  0  0
   17.7735  131.6944   -2.4035 C   0  0  0  0  0  0  0  0  0  0  0  0
   18.4411  131.8452   -1.1927 C   0  0  0  0  0  0  0  0  0  0  0  0
   19.7932  132.1712   -1.2042 C   0  0  0  0  0  0  0  0  0  0  0  0
   20.5329  132.3388    0.1134 C   0  0  1  0  0  0  0  0  0  0  0  0
   21.0138  130.9312    0.5453 C   0  0  0  0  0  0  0  0  0  0  0  0
   21.7181  133.2117   -0.0085 N   0  3  0  0  0  0  0  0  0  0  0  0
   19.5971  132.9434    1.1696 C   0  0  0  0  0  0  0  0  0  0  0  0
   19.3163  132.4036    2.3903 C   0  0  0  0  0  0  0  0  0  0  0  0
   18.4498  133.2539    3.0108 N   0  0  0  0  0  0  0  0  0  0  0  0
   18.2091  134.2687    2.2084 C   0  0  0  0  0  0  0  0  0  0  0  0
   18.9123  134.1119    1.0546 N   0  0  0  0  0  0  0  0  0  0  0  0
   18.9240  135.0235   -0.0993 C   0  0  0  0  0  0  0  0  0  0  0  0
   20.4778  132.3464   -2.4025 C   0  0  0  0  0  0  0  0  0  0  0  0
   19.7999  132.1930   -3.6074 C   0  0  0  0  0  0  0  0  0  0  0  0
   18.4476  131.8668   -3.6080 C   0  0  0  0  0  0  0  0  0  0  0  0
   17.7067  131.6990   -4.9246 C   0  0  0  0  0  0  0  0  0  0  0  0
   17.1420  131.5712   -5.9266 N   0  0  0  0  0  0  0  0  0  0  0  0
   15.6919  133.4037   -3.3602 C   0  0  0  0  0  0  0  0  0  0  0  0
   14.1373  135.8504   -5.6520 C   0  0  0  0  0  0  0  0  0  0  0  0
   14.1911  134.8456   -6.8035 C   0  0  0  0  0  0  0  0  0  0  0  0
   15.5464  134.1935   -7.0667 C   0  0  0  0  0  0  0  0  0  0  0  0
   16.7647  135.1170   -7.0316 C   0  0  0  0  0  0  0  0  0  0  0  0
   17.2406  135.5470   -5.6945 N   0  0  0  0  0  0  0  0  0  0  0  0
   18.6836  135.8065   -5.5686 C   0  0  0  0  0  0  0  0  0  0  0  0
   16.4760  135.7408   -4.5243 C   0  0  0  0  0  0  0  0  0  0  0  0
   17.0843  136.0596   -3.5119 O   0  0  0  0  0  0  0  0  0  0  0  0
   14.4508  136.7548   -1.2284 H   0  0  0  0  0  0  0  0  0  0  0  0
   14.3095  135.2005   -1.7086 H   0  0  0  0  0  0  0  0  0  0  0  0
   15.7659  135.9381   -1.7479 H   0  0  0  0  0  0  0  0  0  0  0  0
   14.9764  137.4065   -3.4487 H   0  0  0  0  0  0  0  0  0  0  0  0
   13.5200  136.6689   -3.4095 H   0  0  0  0  0  0  0  0  0  0  0  0
   12.6340  134.2154   -4.3829 H   0  0  0  0  0  0  0  0  0  0  0  0
   12.1903  131.9992   -3.6021 H   0  0  0  0  0  0  0  0  0  0  0  0
   13.9404  130.6644   -2.6702 H   0  0  0  0  0  0  0  0  0  0  0  0
   17.9562  131.7212   -0.3269 H   0  0  0  0  0  0  0  0  0  0  0  0
   21.5075  130.9989    1.4123 H   0  0  0  0  0  0  0  0  0  0  0  0
   20.2235  130.3289    0.6579 H   0  0  0  0  0  0  0  0  0  0  0  0
   21.6210  130.5567   -0.1556 H   0  0  0  0  0  0  0  0  0  0  0  0
   22.0830  133.4074    0.9018 H   0  0  0  0  0  0  0  0  0  0  0  0
   22.4167  132.7508   -0.5557 H   0  0  0  0  0  0  0  0  0  0  0  0
   21.4569  134.0680   -0.4540 H   0  0  0  0  0  0  0  0  0  0  0  0
   19.6771  131.5473    2.7598 H   0  0  0  0  0  0  0  0  0  0  0  0
   17.6027  135.0366    2.4149 H   0  0  0  0  0  0  0  0  0  0  0  0
   19.5293  134.6582   -0.8065 H   0  0  0  0  0  0  0  0  0  0  0  0
   17.9975  135.1096   -0.4655 H   0  0  0  0  0  0  0  0  0  0  0  0
   19.2532  135.9225    0.1895 H   0  0  0  0  0  0  0  0  0  0  0  0
   21.4500  132.5809   -2.3978 H   0  0  0  0  0  0  0  0  0  0  0  0
   20.2847  132.3171   -4.4731 H   0  0  0  0  0  0  0  0  0  0  0  0
   16.6180  133.7753   -3.2963 H   0  0  0  0  0  0  0  0  0  0  0  0
   14.4418  136.7307   -6.0157 H   0  0  0  0  0  0  0  0  0  0  0  0
   13.1811  135.9202   -5.3674 H   0  0  0  0  0  0  0  0  0  0  0  0
   13.9149  135.3227   -7.6378 H   0  0  0  0  0  0  0  0  0  0  0  0
   13.5357  134.1172   -6.6035 H   0  0  0  0  0  0  0  0  0  0  0  0
   15.5102  133.7722   -7.9730 H   0  0  0  0  0  0  0  0  0  0  0  0
   15.6822  133.4845   -6.3747 H   0  0  0  0  0  0  0  0  0  0  0  0
   16.5348  135.9406   -7.5500 H   0  0  0  0  0  0  0  0  0  0  0  0
   17.5192  134.6394   -7.4819 H   0  0  0  0  0  0  0  0  0  0  0  0
   18.8912  136.0881   -4.6318 H   0  0  0  0  0  0  0  0  0  0  0  0
   19.1923  134.9738   -5.7869 H   0  0  0  0  0  0  0  0  0  0  0  0
   18.9479  136.5341   -6.2017 H   0  0  0  0  0  0  0  0  0  0  0  0
  1  2  1  0  0  0  0
  2  3  1  0  0  0  0
  3  4  1  0  0  0  0
  4  5  2  0  0  0  0
  5  6  1  0  0  0  0
  6  7  2  0  0  0  0
  7  8  1  0  0  0  0
  8  9  1  0  0  0  0
  9 10  1  0  0  0  0
 10 11  2  0  0  0  0
 11 12  1  0  0  0  0
 12 13  1  0  0  0  0
 13 14  1  0  0  0  0
 13 15  1  0  0  0  0
 13 16  1  0  0  0  0
 16 17  2  0  0  0  0
 17 18  1  0  0  0  0
 18 19  2  0  0  0  0
 19 20  1  0  0  0  0
 20 21  1  0  0  0  0
 12 22  2  0  0  0  0
 22 23  1  0  0  0  0
 23 24  2  0  0  0  0
 24 25  1  0  0  0  0
 25 26  3  0  0  0  0
  8 27  2  0  0  0  0
  3 28  1  0  0  0  0
 28 29  1  0  0  0  0
 29 30  1  0  0  0  0
 30 31  1  0  0  0  0
 31 32  1  0  0  0  0
 32 33  1  0  0  0  0
 32 34  1  0  0  0  0
 34 35  2  0  0  0  0
 34  3  1  0  0  0  0
 27  4  1  0  0  0  0
 24 10  1  0  0  0  0
 20 16  1  0  0  0  0
  1 36  1  0  0  0  0
  1 37  1  0  0  0  0
  1 38  1  0  0  0  0
  2 39  1  0  0  0  0
  2 40  1  0  0  0  0
  5 41  1  0  0  0  0
  6 42  1  0  0  0  0
  7 43  1  0  0  0  0
 11 44  1  0  0  0  0
 14 45  1  0  0  0  0
 14 46  1  0  0  0  0
 14 47  1  0  0  0  0
 15 48  1  0  0  0  0
 15 49  1  0  0  0  0
 15 50  1  0  0  0  0
 17 51  1  0  0  0  0
 19 52  1  0  0  0  0
 21 53  1  0  0  0  0
 21 54  1  0  0  0  0
 21 55  1  0  0  0  0
 22 56  1  0  0  0  0
 23 57  1  0  0  0  0
 27 58  1  0  0  0  0
 28 59  1  0  0  0  0
 28 60  1  0  0  0  0
 29 61  1  0  0  0  0
 29 62  1  0  0  0  0
 30 63  1  0  0  0  0
 30 64  1  0  0  0  0
 31 65  1  0  0  0  0
 31 66  1  0  0  0  0
 33 67  1  0  0  0  0
 33 68  1  0  0  0  0
 33 69  1  0  0  0  0
M  CHG  1  15   1
M  END
> <BIOSOLVEIT.HYDE_ESTIMATED_AFFINITY_LOWER_BOUNDARY [nM]>
0.008266

> <BIOSOLVEIT.HYDE_ESTIMATED_AFFINITY_UPPER_BOUNDARY [nM]>
0.821266

> <BIOSOLVEIT.HYDE_LIGAND_EFFICIENCY range: ++, +, 0, -, -->
0

> <BIOSOLVEIT.HYDE_LIGAND_LIPOPHILIC_EFFICIENCY range: ++, +, 0, -, -->
+

> <BIOSOLVEIT.INTER_CLASH range: red, yellow, green>
yellow

> <BIOSOLVEIT.INTRA_CLASH range: red, yellow, green>
yellow

> <BIOSOLVEIT.LOGP>
3.87958

> <BIOSOLVEIT.MOLECULAR WEIGHT>
472.61

> <BIOSOLVEIT.MOLECULE_CHECKSUM>
LTU3LjU2MDI7MS42NDQ1OA==

> <BIOSOLVEIT.TORSION_QUALITY range: red, yellow, green, not rotatable>
green

> <BIOSOLVEIT.TPSA>
98.79

$$$$
1MZC_BNE_3
foHydescor03192112233D 1   1.00000     0.00000     0
Hydescorer 1.1.0 fol007
 68 71  0  0  0  0            999 V2000
   13.6095  132.4218   -3.6660 C   0  0  0  0  0  0  0  0  0  0  0  0
   14.2859  133.3256   -2.6243 C   0  0  0  0  0  0  0  0  0  0  0  0
   15.4205  134.1761   -3.1624 C   0  0  1  0  0  0  0  0  0  0  0  0
   16.5938  133.2591   -3.4647 C   0  0  0  0  0  0  0  0  0  0  0  0
   16.8577  132.8779   -4.7762 C   0  0  0  0  0  0  0  0  0  0  0  0
   17.9371  132.0375   -5.0296 C   0  0  0  0  0  0  0  0  0  0  0  0
   18.7466  131.5791   -3.9956 C   0  0  0  0  0  0  0  0  0  0  0  0
   18.4648  131.9724   -2.6914 C   0  0  0  0  0  0  0  0  0  0  0  0
   19.2457  131.5314   -1.6817 O   0  0  0  0  0  0  0  0  0  0  0  0
   19.9221  132.3498   -0.7617 C   0  0  0  0  0  0  0  0  0  0  0  0
   20.5248  133.5156   -1.2226 C   0  0  0  0  0  0  0  0  0  0  0  0
   21.1965  134.3306   -0.3174 C   0  0  0  0  0  0  0  0  0  0  0  0
   21.8591  135.6071   -0.8101 C   0  0  1  0  0  0  0  0  0  0  0  0
   21.5672  136.7047    0.2431 C   0  0  0  0  0  0  0  0  0  0  0  0
   23.3241  135.4723   -0.9390 N   0  0  0  0  0  0  0  0  0  0  0  0
   21.2901  136.0008   -2.1806 C   0  0  0  0  0  0  0  0  0  0  0  0
   20.4357  137.0361   -2.4227 C   0  0  0  0  0  0  0  0  0  0  0  0
   20.1826  137.0369   -3.7625 N   0  0  0  0  0  0  0  0  0  0  0  0
   20.8501  136.0480   -4.3173 C   0  0  0  0  0  0  0  0  0  0  0  0
   21.5565  135.3849   -3.3626 N   0  0  0  0  0  0  0  0  0  0  0  0
   22.4321  134.2211   -3.5654 C   0  0  0  0  0  0  0  0  0  0  0  0
   21.2710  133.9949    1.0306 C   0  0  0  0  0  0  0  0  0  0  0  0
   20.6645  132.8267    1.4801 C   0  0  0  0  0  0  0  0  0  0  0  0
   19.9897  132.0040    0.5840 C   0  0  0  0  0  0  0  0  0  0  0  0
   19.3268  130.7274    1.0750 C   0  0  0  0  0  0  0  0  0  0  0  0
   18.8220  129.7552    1.4482 N   0  0  0  0  0  0  0  0  0  0  0  0
   17.3907  132.8121   -2.4156 C   0  0  0  0  0  0  0  0  0  0  0  0
   14.9026  134.6801   -4.5115 C   0  0  0  0  0  0  0  0  0  0  0  0
   15.7855  135.6670   -5.2792 C   0  0  0  0  0  0  0  0  0  0  0  0
   15.7811  137.0916   -4.7339 C   0  0  0  0  0  0  0  0  0  0  0  0
   16.5953  137.3182   -3.4491 C   0  0  0  0  0  0  0  0  0  0  0  0
   16.3345  136.5176   -2.2202 N   0  0  0  0  0  0  0  0  0  0  0  0
   16.6382  137.2248   -0.9673 C   0  0  0  0  0  0  0  0  0  0  0  0
   15.8360  135.1888   -2.0826 C   0  0  0  0  0  0  0  0  0  0  0  0
   15.7179  134.7920   -0.9359 O   0  0  0  0  0  0  0  0  0  0  0  0
   12.8776  131.8992   -3.2289 H   0  0  0  0  0  0  0  0  0  0  0  0
   13.2257  132.9855   -4.3974 H   0  0  0  0  0  0  0  0  0  0  0  0
   14.2851  131.7923   -4.0500 H   0  0  0  0  0  0  0  0  0  0  0  0
   14.6509  132.7437   -1.8975 H   0  0  0  0  0  0  0  0  0  0  0  0
   13.5915  133.9369   -2.2448 H   0  0  0  0  0  0  0  0  0  0  0  0
   16.2805  133.2029   -5.5253 H   0  0  0  0  0  0  0  0  0  0  0  0
   18.1339  131.7587   -5.9696 H   0  0  0  0  0  0  0  0  0  0  0  0
   19.5204  130.9753   -4.1870 H   0  0  0  0  0  0  0  0  0  0  0  0
   20.4759  133.7640   -2.1899 H   0  0  0  0  0  0  0  0  0  0  0  0
   21.9884  137.5644   -0.0459 H   0  0  0  0  0  0  0  0  0  0  0  0
   20.5789  136.8301    0.3288 H   0  0  0  0  0  0  0  0  0  0  0  0
   21.9459  136.4283    1.1264 H   0  0  0  0  0  0  0  0  0  0  0  0
   23.7123  136.3388   -1.2525 H   0  0  0  0  0  0  0  0  0  0  0  0
   23.7163  135.2332   -0.0506 H   0  0  0  0  0  0  0  0  0  0  0  0
   20.0655  137.6730   -1.7466 H   0  0  0  0  0  0  0  0  0  0  0  0
   20.8396  135.8192   -5.2908 H   0  0  0  0  0  0  0  0  0  0  0  0
   22.8225  133.9408   -2.6885 H   0  0  0  0  0  0  0  0  0  0  0  0
   21.9000  133.4666   -3.9498 H   0  0  0  0  0  0  0  0  0  0  0  0
   23.1691  134.4643   -4.1959 H   0  0  0  0  0  0  0  0  0  0  0  0
   21.7568  134.5890    1.6716 H   0  0  0  0  0  0  0  0  0  0  0  0
   20.7135  132.5781    2.4475 H   0  0  0  0  0  0  0  0  0  0  0  0
   17.1940  133.0908   -1.4756 H   0  0  0  0  0  0  0  0  0  0  0  0
   14.0239  135.1283   -4.3473 H   0  0  0  0  0  0  0  0  0  0  0  0
   14.7651  133.8816   -5.0975 H   0  0  0  0  0  0  0  0  0  0  0  0
   15.4674  135.6962   -6.2268 H   0  0  0  0  0  0  0  0  0  0  0  0
   16.7258  135.3275   -5.2536 H   0  0  0  0  0  0  0  0  0  0  0  0
   14.8325  137.3449   -4.5448 H   0  0  0  0  0  0  0  0  0  0  0  0
   16.1518  137.6925   -5.4421 H   0  0  0  0  0  0  0  0  0  0  0  0
   16.4650  138.2768   -3.1960 H   0  0  0  0  0  0  0  0  0  0  0  0
   17.5536  137.1643   -3.6898 H   0  0  0  0  0  0  0  0  0  0  0  0
   16.4392  136.6272   -0.1906 H   0  0  0  0  0  0  0  0  0  0  0  0
   17.6055  137.4782   -0.9536 H   0  0  0  0  0  0  0  0  0  0  0  0
   16.0766  138.0499   -0.9057 H   0  0  0  0  0  0  0  0  0  0  0  0
  1  2  1  0  0  0  0
  2  3  1  0  0  0  0
  3  4  1  0  0  0  0
  4  5  2  0  0  0  0
  5  6  1  0  0  0  0
  6  7  2  0  0  0  0
  7  8  1  0  0  0  0
  8  9  1  0  0  0  0
  9 10  1  0  0  0  0
 10 11  2  0  0  0  0
 11 12  1  0  0  0  0
 12 13  1  0  0  0  0
 13 14  1  0  0  0  0
 13 15  1  0  0  0  0
 13 16  1  0  0  0  0
 16 17  2  0  0  0  0
 17 18  1  0  0  0  0
 18 19  2  0  0  0  0
 19 20  1  0  0  0  0
 20 21  1  0  0  0  0
 12 22  2  0  0  0  0
 22 23  1  0  0  0  0
 23 24  2  0  0  0  0
 24 25  1  0  0  0  0
 25 26  3  0  0  0  0
  8 27  2  0  0  0  0
  3 28  1  0  0  0  0
 28 29  1  0  0  0  0
 29 30  1  0  0  0  0
 30 31  1  0  0  0  0
 31 32  1  0  0  0  0
 32 33  1  0  0  0  0
 32 34  1  0  0  0  0
 34 35  2  0  0  0  0
 34  3  1  0  0  0  0
 27  4  1  0  0  0  0
 24 10  1  0  0  0  0
 20 16  1  0  0  0  0
  1 36  1  0  0  0  0
  1 37  1  0  0  0  0
  1 38  1  0  0  0  0
  2 39  1  0  0  0  0
  2 40  1  0  0  0  0
  5 41  1  0  0  0  0
  6 42  1  0  0  0  0
  7 43  1  0  0  0  0
 11 44  1  0  0  0  0
 14 45  1  0  0  0  0
 14 46  1  0  0  0  0
 14 47  1  0  0  0  0
 33 68  1  0  0  0  0
 15 48  1  0  0  0  0
 15 49  1  0  0  0  0
 17 50  1  0  0  0  0
 19 51  1  0  0  0  0
 21 52  1  0  0  0  0
 21 53  1  0  0  0  0
 21 54  1  0  0  0  0
 22 55  1  0  0  0  0
 23 56  1  0  0  0  0
 27 57  1  0  0  0  0
 28 58  1  0  0  0  0
 28 59  1  0  0  0  0
 29 60  1  0  0  0  0
 29 61  1  0  0  0  0
 30 62  1  0  0  0  0
 30 63  1  0  0  0  0
 31 64  1  0  0  0  0
 31 65  1  0  0  0  0
 33 66  1  0  0  0  0
 33 67  1  0  0  0  0
M  END
> <BIOSOLVEIT.HYDE_ESTIMATED_AFFINITY_LOWER_BOUNDARY [nM]>
7217849.841455

> <BIOSOLVEIT.HYDE_ESTIMATED_AFFINITY_UPPER_BOUNDARY [nM]>
717136057.054144

> <BIOSOLVEIT.HYDE_LIGAND_EFFICIENCY range: ++, +, 0, -, -->
--

> <BIOSOLVEIT.HYDE_LIGAND_LIPOPHILIC_EFFICIENCY range: ++, +, 0, -, -->
--

> <BIOSOLVEIT.INTER_CLASH range: red, yellow, green>
green

> <BIOSOLVEIT.INTRA_CLASH range: red, yellow, green>
green

> <BIOSOLVEIT.LOGP>
4.59638

> <BIOSOLVEIT.MOLECULAR WEIGHT>
471.602

> <BIOSOLVEIT.MOLECULE_CHECKSUM>
LTYuNTI0MjM7MC4xODY0MDc=

> <BIOSOLVEIT.TORSION_QUALITY range: red, yellow, green, not rotatable>
green

> <BIOSOLVEIT.TPSA>
97.17

$$$$
1LD7_U66_1
foHydescor03192112233D 1   1.00000     0.00000     0
Hydescorer 1.1.0 fol007
 62 67  0  0  0  0            999 V2000
   17.2746  139.3560   -5.5940 N   0  0  0  0  0  0  0  0  0  0  0  0
   18.4278  139.3477   -5.6935 C   0  0  0  0  0  0  0  0  0  0  0  0
   19.8998  139.3403   -5.8155 C   0  0  1  0  0  0  0  0  0  0  0  0
   20.5167  140.1429   -4.6581 C   0  0  0  0  0  0  0  0  0  0  0  0
   20.3596  139.4328   -3.3337 C   0  0  0  0  0  0  0  0  0  0  0  0
   20.2523  138.0884   -3.2350 C   0  0  0  0  0  0  0  0  0  0  0  0
   20.2008  137.1968   -4.4599 C   0  0  0  0  0  0  0  0  0  0  0  0
   20.4956  137.9141   -5.7894 C   0  0  1  0  0  0  0  0  0  0  0  0
   20.1267  137.1164   -6.9290 O   0  0  0  0  0  0  0  0  0  0  0  0
   18.8149  136.7605   -7.2701 C   0  0  0  0  0  0  0  0  0  0  0  0
   18.1347  137.5085   -8.2335 C   0  0  0  0  0  0  0  0  0  0  0  0
   16.8108  137.2119   -8.5502 C   0  0  0  0  0  0  0  0  0  0  0  0
   16.1471  136.1585   -7.9047 C   0  0  0  0  0  0  0  0  0  0  0  0
   14.8070  135.8908   -8.2116 C   0  0  0  0  0  0  0  0  0  0  0  0
   14.1348  134.8536   -7.5723 C   0  0  0  0  0  0  0  0  0  0  0  0
   14.7890  134.0717   -6.6226 C   0  0  0  0  0  0  0  0  0  0  0  0
   16.1365  134.3052   -6.2956 C   0  0  0  0  0  0  0  0  0  0  0  0
   16.8327  135.3630   -6.9454 C   0  0  0  0  0  0  0  0  0  0  0  0
   18.1889  135.6511   -6.6782 C   0  0  0  0  0  0  0  0  0  0  0  0
   16.7613  133.4773   -5.2930 N   0  0  0  0  0  0  0  0  0  0  0  0
   16.6750  132.0231   -5.2392 C   0  0  0  0  0  0  0  0  0  0  0  0
   17.0100  131.6394   -3.7854 C   0  0  0  0  0  0  0  0  0  0  0  0
   17.7871  132.8327   -3.1943 C   0  0  1  0  0  0  0  0  0  0  0  0
   19.2440  132.5887   -3.3085 N   0  3  0  0  0  0  0  0  0  0  0  0
   20.0960  133.7600   -3.0424 C   0  0  0  0  0  0  0  0  0  0  0  0
   20.0139  134.2581   -1.5915 C   0  0  0  0  0  0  0  0  0  0  0  0
   21.1283  135.2360   -1.3141 C   0  0  0  0  0  0  0  0  0  0  0  0
   22.4040  134.8814   -0.9287 C   0  0  0  0  0  0  0  0  0  0  0  0
   23.1751  135.9842   -0.8540 N   0  0  0  0  0  0  0  0  0  0  0  0
   22.3529  136.9943   -1.2062 C   0  0  0  0  0  0  0  0  0  0  0  0
   21.1063  136.5743   -1.5046 N   0  0  0  0  0  0  0  0  0  0  0  0
   19.9930  137.4444   -1.8898 C   0  0  0  0  0  0  0  0  0  0  0  0
   17.3145  133.9399   -4.0724 C   0  0  0  0  0  0  0  0  0  0  0  0
   17.2930  135.1505   -3.7235 O   0  0  0  0  0  0  0  0  0  0  0  0
   20.1521  139.7773   -6.6788 H   0  0  0  0  0  0  0  0  0  0  0  0
   20.0633  141.0326   -4.6038 H   0  0  0  0  0  0  0  0  0  0  0  0
   21.4910  140.2760   -4.8400 H   0  0  0  0  0  0  0  0  0  0  0  0
   20.3339  139.9790   -2.4965 H   0  0  0  0  0  0  0  0  0  0  0  0
   19.2854  136.7984   -4.5170 H   0  0  0  0  0  0  0  0  0  0  0  0
   20.8750  136.4676   -4.3431 H   0  0  0  0  0  0  0  0  0  0  0  0
   21.4885  138.0244   -5.8341 H   0  0  0  0  0  0  0  0  0  0  0  0
   18.6004  138.2613   -8.6986 H   0  0  0  0  0  0  0  0  0  0  0  0
   16.3315  137.7528   -9.2413 H   0  0  0  0  0  0  0  0  0  0  0  0
   14.3314  136.4473   -8.8929 H   0  0  0  0  0  0  0  0  0  0  0  0
   13.1778  134.6686   -7.7955 H   0  0  0  0  0  0  0  0  0  0  0  0
   14.2926  133.3331   -6.1666 H   0  0  0  0  0  0  0  0  0  0  0  0
   18.7086  135.0598   -6.0616 H   0  0  0  0  0  0  0  0  0  0  0  0
   17.3334  131.6111   -5.8692 H   0  0  0  0  0  0  0  0  0  0  0  0
   15.7521  131.7195   -5.4762 H   0  0  0  0  0  0  0  0  0  0  0  0
   17.5745  130.8142   -3.7659 H   0  0  0  0  0  0  0  0  0  0  0  0
   16.1701  131.4812   -3.2663 H   0  0  0  0  0  0  0  0  0  0  0  0
   17.5250  132.9942   -2.2429 H   0  0  0  0  0  0  0  0  0  0  0  0
   19.4333  132.2726   -4.2381 H   0  0  0  0  0  0  0  0  0  0  0  0
   19.4902  131.8719   -2.6561 H   0  0  0  0  0  0  0  0  0  0  0  0
   19.8121  134.5027   -3.6489 H   0  0  0  0  0  0  0  0  0  0  0  0
   21.0448  133.5130   -3.2394 H   0  0  0  0  0  0  0  0  0  0  0  0
   20.0951  133.4792   -0.9695 H   0  0  0  0  0  0  0  0  0  0  0  0
   19.1337  134.7101   -1.4465 H   0  0  0  0  0  0  0  0  0  0  0  0
   22.7099  133.9493   -0.7346 H   0  0  0  0  0  0  0  0  0  0  0  0
   22.6374  137.9523   -1.2423 H   0  0  0  0  0  0  0  0  0  0  0  0
   19.8827  138.1600   -1.2000 H   0  0  0  0  0  0  0  0  0  0  0  0
   19.1555  136.9007   -1.9430 H   0  0  0  0  0  0  0  0  0  0  0  0
  1  2  3  0  0  0  0
  2  3  1  0  0  0  0
  3  4  1  0  0  0  0
  4  5  1  0  0  0  0
  5  6  2  0  0  0  0
  6  7  1  0  0  0  0
  7  8  1  0  0  0  0
  8  9  1  0  0  0  0
  9 10  1  0  0  0  0
 10 11  2  0  0  0  0
 11 12  1  0  0  0  0
 12 13  2  0  0  0  0
 13 14  1  0  0  0  0
 14 15  2  0  0  0  0
 15 16  1  0  0  0  0
 16 17  2  0  0  0  0
 17 18  1  0  0  0  0
 18 19  2  0  0  0  0
 17 20  1  0  0  0  0
 20 21  1  0  0  0  0
 21 22  1  0  0  0  0
 22 23  1  0  0  0  0
 23 24  1  0  0  0  0
 24 25  1  0  0  0  0
 25 26  1  0  0  0  0
 26 27  1  0  0  0  0
 27 28  2  0  0  0  0
 28 29  1  0  0  0  0
 29 30  2  0  0  0  0
 30 31  1  0  0  0  0
 31 32  1  0  0  0  0
 23 33  1  0  0  0  0
 33 34  2  0  0  0  0
  8  3  1  0  0  0  0
 19 10  1  0  0  0  0
 33 20  1  0  0  0  0
 32  6  1  0  0  0  0
 18 13  1  0  0  0  0
 31 27  1  0  0  0  0
  3 35  1  0  0  0  0
  4 36  1  0  0  0  0
  4 37  1  0  0  0  0
  5 38  1  0  0  0  0
  7 39  1  0  0  0  0
  7 40  1  0  0  0  0
  8 41  1  0  0  0  0
 11 42  1  0  0  0  0
 12 43  1  0  0  0  0
 14 44  1  0  0  0  0
 15 45  1  0  0  0  0
 16 46  1  0  0  0  0
 19 47  1  0  0  0  0
 21 48  1  0  0  0  0
 21 49  1  0  0  0  0
 22 50  1  0  0  0  0
 22 51  1  0  0  0  0
 23 52  1  0  0  0  0
 24 53  1  0  0  0  0
 24 54  1  0  0  0  0
 25 55  1  0  0  0  0
 25 56  1  0  0  0  0
 26 57  1  0  0  0  0
 26 58  1  0  0  0  0
 28 59  1  0  0  0  0
 30 60  1  0  0  0  0
 32 61  1  0  0  0  0
 32 62  1  0  0  0  0
M  CHG  1  24   1
M  END
> <BIOSOLVEIT.HYDE_ESTIMATED_AFFINITY_LOWER_BOUNDARY [nM]>
586062450612.975342

> <BIOSOLVEIT.HYDE_ESTIMATED_AFFINITY_UPPER_BOUNDARY [nM]>
58228769543837.250000

> <BIOSOLVEIT.HYDE_LIGAND_EFFICIENCY range: ++, +, 0, -, -->
--

> <BIOSOLVEIT.HYDE_LIGAND_LIPOPHILIC_EFFICIENCY range: ++, +, 0, -, -->
--

> <BIOSOLVEIT.INTER_CLASH range: red, yellow, green>
green

> <BIOSOLVEIT.INTRA_CLASH range: red, yellow, green>
green

> <BIOSOLVEIT.LOGP>
2.56868

> <BIOSOLVEIT.MOLECULAR WEIGHT>
454.551

> <BIOSOLVEIT.MOLECULE_CHECKSUM>
MjEuNDk5NDsw

> <BIOSOLVEIT.TORSION_QUALITY range: red, yellow, green, not rotatable>
not rotatable

> <BIOSOLVEIT.TPSA>
87.76

$$$$
1LD7_U66_2
foHydescor03192112233D 1   1.00000     0.00000     0
Hydescorer 1.1.0 fol007
 62 67  0  0  0  0            999 V2000
   16.8363  132.3592   -1.1132 N   0  0  0  0  0  0  0  0  0  0  0  0
   17.3752  132.1140   -2.1077 C   0  0  0  0  0  0  0  0  0  0  0  0
   18.0582  131.8034   -3.3800 C   0  0  1  0  0  0  0  0  0  0  0  0
   17.1522  132.1930   -4.5597 C   0  0  0  0  0  0  0  0  0  0  0  0
   17.0162  133.6918   -4.6941 C   0  0  0  0  0  0  0  0  0  0  0  0
   17.9682  134.5520   -4.2673 C   0  0  0  0  0  0  0  0  0  0  0  0
   19.2131  134.0753   -3.5456 C   0  0  0  0  0  0  0  0  0  0  0  0
   19.4041  132.5480   -3.5345 C   0  0  1  0  0  0  0  0  0  0  0  0
   20.4023  132.1335   -2.5843 O   0  0  0  0  0  0  0  0  0  0  0  0
   20.2860  132.2525   -1.1929 C   0  0  0  0  0  0  0  0  0  0  0  0
   19.8707  131.1474   -0.4471 C   0  0  0  0  0  0  0  0  0  0  0  0
   19.6918  131.2541    0.9305 C   0  0  0  0  0  0  0  0  0  0  0  0
   19.9273  132.4731    1.5828 C   0  0  0  0  0  0  0  0  0  0  0  0
   19.7145  132.5737    2.9635 C   0  0  0  0  0  0  0  0  0  0  0  0
   19.9365  133.7797    3.6212 C   0  0  0  0  0  0  0  0  0  0  0  0
   20.3738  134.8969    2.9127 C   0  0  0  0  0  0  0  0  0  0  0  0
   20.6067  134.8309    1.5276 C   0  0  0  0  0  0  0  0  0  0  0  0
   20.3837  133.6012    0.8465 C   0  0  0  0  0  0  0  0  0  0  0  0
   20.6059  133.4544   -0.5401 C   0  0  0  0  0  0  0  0  0  0  0  0
   21.0423  136.0214    0.8390 N   0  0  0  0  0  0  0  0  0  0  0  0
   22.1096  136.9046    1.2929 C   0  0  0  0  0  0  0  0  0  0  0  0
   21.8666  138.2502    0.5835 C   0  0  0  0  0  0  0  0  0  0  0  0
   20.9905  137.9359   -0.6457 C   0  0  1  0  0  0  0  0  0  0  0  0
   21.8471  137.7682   -1.8428 N   0  3  0  0  0  0  0  0  0  0  0  0
   21.1719  137.1923   -3.0180 C   0  0  0  0  0  0  0  0  0  0  0  0
   20.0702  138.0954   -3.5930 C   0  0  0  0  0  0  0  0  0  0  0  0
   19.6504  137.6001   -4.9545 C   0  0  0  0  0  0  0  0  0  0  0  0
   20.2824  137.9263   -6.1359 C   0  0  0  0  0  0  0  0  0  0  0  0
   19.7161  137.2463   -7.1526 N   0  0  0  0  0  0  0  0  0  0  0  0
   18.7509  136.5076   -6.5670 C   0  0  0  0  0  0  0  0  0  0  0  0
   18.6917  136.6881   -5.2316 N   0  0  0  0  0  0  0  0  0  0  0  0
   17.7281  136.0450   -4.3357 C   0  0  0  0  0  0  0  0  0  0  0  0
   20.3438  136.6649   -0.2134 C   0  0  0  0  0  0  0  0  0  0  0  0
   19.2314  136.2620   -0.6469 O   0  0  0  0  0  0  0  0  0  0  0  0
   18.2303  130.8191   -3.4194 H   0  0  0  0  0  0  0  0  0  0  0  0
   16.2451  131.7976   -4.4150 H   0  0  0  0  0  0  0  0  0  0  0  0
   17.5446  131.8270   -5.4035 H   0  0  0  0  0  0  0  0  0  0  0  0
   16.1887  134.0626   -5.1157 H   0  0  0  0  0  0  0  0  0  0  0  0
   19.1636  134.3900   -2.5978 H   0  0  0  0  0  0  0  0  0  0  0  0
   20.0084  134.4856   -3.9919 H   0  0  0  0  0  0  0  0  0  0  0  0
   19.7577  132.3033   -4.4373 H   0  0  0  0  0  0  0  0  0  0  0  0
   19.7007  130.2745   -0.9044 H   0  0  0  0  0  0  0  0  0  0  0  0
   19.3941  130.4577    1.4567 H   0  0  0  0  0  0  0  0  0  0  0  0
   19.4017  131.7757    3.4787 H   0  0  0  0  0  0  0  0  0  0  0  0
   19.7816  133.8448    4.6069 H   0  0  0  0  0  0  0  0  0  0  0  0
   20.5242  135.7590    3.3967 H   0  0  0  0  0  0  0  0  0  0  0  0
   20.9947  134.2133   -1.0624 H   0  0  0  0  0  0  0  0  0  0  0  0
   23.0022  136.5323    1.0384 H   0  0  0  0  0  0  0  0  0  0  0  0
   22.0676  137.0210    2.2852 H   0  0  0  0  0  0  0  0  0  0  0  0
   22.7358  138.6524    0.2960 H   0  0  0  0  0  0  0  0  0  0  0  0
   21.3921  138.8836    1.1946 H   0  0  0  0  0  0  0  0  0  0  0  0
   20.3085  138.6526   -0.7914 H   0  0  0  0  0  0  0  0  0  0  0  0
   22.6082  137.1678   -1.5976 H   0  0  0  0  0  0  0  0  0  0  0  0
   22.2013  138.6677   -2.0989 H   0  0  0  0  0  0  0  0  0  0  0  0
   20.7602  136.3209   -2.7515 H   0  0  0  0  0  0  0  0  0  0  0  0
   21.8557  137.0340   -3.7303 H   0  0  0  0  0  0  0  0  0  0  0  0
   20.4172  139.0297   -3.6737 H   0  0  0  0  0  0  0  0  0  0  0  0
   19.2806  138.0850   -2.9795 H   0  0  0  0  0  0  0  0  0  0  0  0
   21.0436  138.5687   -6.2247 H   0  0  0  0  0  0  0  0  0  0  0  0
   18.1439  135.8919   -7.0695 H   0  0  0  0  0  0  0  0  0  0  0  0
   16.8026  136.2126   -4.6755 H   0  0  0  0  0  0  0  0  0  0  0  0
   17.8223  136.4342   -3.4194 H   0  0  0  0  0  0  0  0  0  0  0  0
  1  2  3  0  0  0  0
  2  3  1  0  0  0  0
  3  4  1  0  0  0  0
  4  5  1  0  0  0  0
  5  6  2  0  0  0  0
  6  7  1  0  0  0  0
  7  8  1  0  0  0  0
  8  9  1  0  0  0  0
  9 10  1  0  0  0  0
 10 11  2  0  0  0  0
 11 12  1  0  0  0  0
 12 13  2  0  0  0  0
 13 14  1  0  0  0  0
 14 15  2  0  0  0  0
 15 16  1  0  0  0  0
 16 17  2  0  0  0  0
 17 18  1  0  0  0  0
 18 19  2  0  0  0  0
 17 20  1  0  0  0  0
 20 21  1  0  0  0  0
 21 22  1  0  0  0  0
 22 23  1  0  0  0  0
 23 24  1  0  0  0  0
 24 25  1  0  0  0  0
 25 26  1  0  0  0  0
 26 27  1  0  0  0  0
 27 28  2  0  0  0  0
 28 29  1  0  0  0  0
 29 30  2  0  0  0  0
 30 31  1  0  0  0  0
 31 32  1  0  0  0  0
 23 33  1  0  0  0  0
 33 34  2  0  0  0  0
  8  3  1  0  0  0  0
 19 10  1  0  0  0  0
 33 20  1  0  0  0  0
 32  6  1  0  0  0  0
 18 13  1  0  0  0  0
 31 27  1  0  0  0  0
  3 35  1  0  0  0  0
  4 36  1  0  0  0  0
  4 37  1  0  0  0  0
  5 38  1  0  0  0  0
  7 39  1  0  0  0  0
  7 40  1  0  0  0  0
  8 41  1  0  0  0  0
 11 42  1  0  0  0  0
 12 43  1  0  0  0  0
 14 44  1  0  0  0  0
 15 45  1  0  0  0  0
 16 46  1  0  0  0  0
 19 47  1  0  0  0  0
 21 48  1  0  0  0  0
 21 49  1  0  0  0  0
 22 50  1  0  0  0  0
 22 51  1  0  0  0  0
 23 52  1  0  0  0  0
 24 53  1  0  0  0  0
 24 54  1  0  0  0  0
 25 55  1  0  0  0  0
 25 56  1  0  0  0  0
 26 57  1  0  0  0  0
 26 58  1  0  0  0  0
 28 59  1  0  0  0  0
 30 60  1  0  0  0  0
 32 61  1  0  0  0  0
 32 62  1  0  0  0  0
M  CHG  1  24   1
M  END
> <BIOSOLVEIT.HYDE_ESTIMATED_AFFINITY_LOWER_BOUNDARY [nM]>
25910217326314.820313

> <BIOSOLVEIT.HYDE_ESTIMATED_AFFINITY_UPPER_BOUNDARY [nM]>
2574333284698114.500000

> <BIOSOLVEIT.HYDE_LIGAND_EFFICIENCY range: ++, +, 0, -, -->
--

> <BIOSOLVEIT.HYDE_LIGAND_LIPOPHILIC_EFFICIENCY range: ++, +, 0, -, -->
--

> <BIOSOLVEIT.INTER_CLASH range: red, yellow, green>
green

> <BIOSOLVEIT.INTRA_CLASH range: red, yellow, green>
green

> <BIOSOLVEIT.LOGP>
2.56868

> <BIOSOLVEIT.MOLECULAR WEIGHT>
454.551

> <BIOSOLVEIT.MOLECULE_CHECKSUM>
MzAuODkyMTsw

> <BIOSOLVEIT.TORSION_QUALITY range: red, yellow, green, not rotatable>
not rotatable

> <BIOSOLVEIT.TPSA>
87.76

$$$$
1LD7_U66_3
foHydescor03192112233D 1   1.00000     0.00000     0
Hydescorer 1.1.0 fol007
 62 67  0  0  0  0            999 V2000
   16.2969  138.5855   -1.9176 N   0  0  0  0  0  0  0  0  0  0  0  0
   16.7002  138.6940   -0.8382 C   0  0  0  0  0  0  0  0  0  0  0  0
   17.2104  138.8293    0.5414 C   0  0  1  0  0  0  0  0  0  0  0  0
   16.2674  138.1004    1.5131 C   0  0  0  0  0  0  0  0  0  0  0  0
   16.3424  136.6001    1.3515 C   0  0  0  0  0  0  0  0  0  0  0  0
   17.4460  135.9702    0.8892 C   0  0  0  0  0  0  0  0  0  0  0  0
   18.6678  136.7354    0.4206 C   0  0  0  0  0  0  0  0  0  0  0  0
   18.6314  138.2460    0.7142 C   0  0  1  0  0  0  0  0  0  0  0  0
   19.6405  138.9649   -0.0181 O   0  0  0  0  0  0  0  0  0  0  0  0
   19.6710  139.1117   -1.4113 C   0  0  0  0  0  0  0  0  0  0  0  0
   19.1674  140.2814   -1.9843 C   0  0  0  0  0  0  0  0  0  0  0  0
   19.1332  140.4294   -3.3693 C   0  0  0  0  0  0  0  0  0  0  0  0
   19.6049  139.4048   -4.2027 C   0  0  0  0  0  0  0  0  0  0  0  0
   19.5367  139.5551   -5.5936 C   0  0  0  0  0  0  0  0  0  0  0  0
   19.9937  138.5425   -6.4315 C   0  0  0  0  0  0  0  0  0  0  0  0
   20.5242  137.3713   -5.8947 C   0  0  0  0  0  0  0  0  0  0  0  0
   20.6169  137.1892   -4.5035 C   0  0  0  0  0  0  0  0  0  0  0  0
   20.1532  138.2199   -3.6384 C   0  0  0  0  0  0  0  0  0  0  0  0
   20.2233  138.1145   -2.2322 C   0  0  0  0  0  0  0  0  0  0  0  0
   21.1586  135.9505   -3.9998 N   0  0  0  0  0  0  0  0  0  0  0  0
   22.3815  135.3184   -4.4791 C   0  0  0  0  0  0  0  0  0  0  0  0
   22.2759  133.8388   -4.0641 C   0  0  0  0  0  0  0  0  0  0  0  0
   21.2539  133.7879   -2.9107 C   0  0  1  0  0  0  0  0  0  0  0  0
   21.9631  133.8211   -1.6102 N   0  3  0  0  0  0  0  0  0  0  0  0
   21.1054  134.0608   -0.4374 C   0  0  0  0  0  0  0  0  0  0  0  0
   20.1010  132.9287   -0.1736 C   0  0  0  0  0  0  0  0  0  0  0  0
   19.4897  133.0853    1.1964 C   0  0  0  0  0  0  0  0  0  0  0  0
   20.0518  132.6134    2.3638 C   0  0  0  0  0  0  0  0  0  0  0  0
   19.3006  132.9996    3.4141 N   0  0  0  0  0  0  0  0  0  0  0  0
   18.2947  133.7113    2.8647 C   0  0  0  0  0  0  0  0  0  0  0  0
   18.3856  133.7945    1.5215 N   0  0  0  0  0  0  0  0  0  0  0  0
   17.4237  134.4754    0.6519 C   0  0  0  0  0  0  0  0  0  0  0  0
   20.4691  135.0268   -3.1746 C   0  0  0  0  0  0  0  0  0  0  0  0
   19.2744  135.1905   -2.8091 O   0  0  0  0  0  0  0  0  0  0  0  0
   17.2308  139.7997    0.7819 H   0  0  0  0  0  0  0  0  0  0  0  0
   15.3291  138.3981    1.3374 H   0  0  0  0  0  0  0  0  0  0  0  0
   16.5226  138.3379    2.4504 H   0  0  0  0  0  0  0  0  0  0  0  0
   15.5436  136.0507    1.5964 H   0  0  0  0  0  0  0  0  0  0  0  0
   18.7524  136.6122   -0.5682 H   0  0  0  0  0  0  0  0  0  0  0  0
   19.4707  136.3490    0.8745 H   0  0  0  0  0  0  0  0  0  0  0  0
   18.8608  138.3489    1.6821 H   0  0  0  0  0  0  0  0  0  0  0  0
   18.8293  141.0169   -1.3972 H   0  0  0  0  0  0  0  0  0  0  0  0
   18.7708  141.2703   -3.7710 H   0  0  0  0  0  0  0  0  0  0  0  0
   19.1581  140.3934   -5.9860 H   0  0  0  0  0  0  0  0  0  0  0  0
   19.9412  138.6560   -7.4237 H   0  0  0  0  0  0  0  0  0  0  0  0
   20.8439  136.6492   -6.5082 H   0  0  0  0  0  0  0  0  0  0  0  0
   20.6704  137.3224   -1.8166 H   0  0  0  0  0  0  0  0  0  0  0  0
   23.1822  135.7429   -4.0564 H   0  0  0  0  0  0  0  0  0  0  0  0
   22.4483  135.3977   -5.4738 H   0  0  0  0  0  0  0  0  0  0  0  0
   23.1649  133.5011   -3.7548 H   0  0  0  0  0  0  0  0  0  0  0  0
   21.9582  133.2846   -4.8335 H   0  0  0  0  0  0  0  0  0  0  0  0
   20.6748  132.9757   -2.9816 H   0  0  0  0  0  0  0  0  0  0  0  0
   22.6465  134.5501   -1.6485 H   0  0  0  0  0  0  0  0  0  0  0  0
   22.4211  132.9411   -1.4845 H   0  0  0  0  0  0  0  0  0  0  0  0
   20.5958  134.9083   -0.5855 H   0  0  0  0  0  0  0  0  0  0  0  0
   21.6900  134.1597    0.3678 H   0  0  0  0  0  0  0  0  0  0  0  0
   20.5733  132.0489   -0.2262 H   0  0  0  0  0  0  0  0  0  0  0  0
   19.3781  132.9607   -0.8637 H   0  0  0  0  0  0  0  0  0  0  0  0
   20.8883  132.0684    2.4222 H   0  0  0  0  0  0  0  0  0  0  0  0
   17.5599  134.1324    3.3966 H   0  0  0  0  0  0  0  0  0  0  0  0
   16.5059  134.1271    0.8427 H   0  0  0  0  0  0  0  0  0  0  0  0
   17.6581  134.2917   -0.3028 H   0  0  0  0  0  0  0  0  0  0  0  0
  1  2  3  0  0  0  0
  2  3  1  0  0  0  0
  3  4  1  0  0  0  0
  4  5  1  0  0  0  0
  5  6  2  0  0  0  0
  6  7  1  0  0  0  0
  7  8  1  0  0  0  0
  8  9  1  0  0  0  0
  9 10  1  0  0  0  0
 10 11  2  0  0  0  0
 11 12  1  0  0  0  0
 12 13  2  0  0  0  0
 13 14  1  0  0  0  0
 14 15  2  0  0  0  0
 15 16  1  0  0  0  0
 16 17  2  0  0  0  0
 17 18  1  0  0  0  0
 18 19  2  0  0  0  0
 17 20  1  0  0  0  0
 20 21  1  0  0  0  0
 21 22  1  0  0  0  0
 22 23  1  0  0  0  0
 23 24  1  0  0  0  0
 24 25  1  0  0  0  0
 25 26  1  0  0  0  0
 26 27  1  0  0  0  0
 27 28  2  0  0  0  0
 28 29  1  0  0  0  0
 29 30  2  0  0  0  0
 30 31  1  0  0  0  0
 31 32  1  0  0  0  0
 23 33  1  0  0  0  0
 33 34  2  0  0  0  0
  8  3  1  0  0  0  0
 19 10  1  0  0  0  0
 33 20  1  0  0  0  0
 32  6  1  0  0  0  0
 18 13  1  0  0  0  0
 31 27  1  0  0  0  0
  3 35  1  0  0  0  0
  4 36  1  0  0  0  0
  4 37  1  0  0  0  0
  5 38  1  0  0  0  0
  7 39  1  0  0  0  0
  7 40  1  0  0  0  0
  8 41  1  0  0  0  0
 11 42  1  0  0  0  0
 12 43  1  0  0  0  0
 14 44  1  0  0  0  0
 15 45  1  0  0  0  0
 16 46  1  0  0  0  0
 19 47  1  0  0  0  0
 21 48  1  0  0  0  0
 21 49  1  0  0  0  0
 22 50  1  0  0  0  0
 22 51  1  0  0  0  0
 23 52  1  0  0  0  0
 24 53  1  0  0  0  0
 24 54  1  0  0  0  0
 25 55  1  0  0  0  0
 25 56  1  0  0  0  0
 26 57  1  0  0  0  0
 26 58  1  0  0  0  0
 28 59  1  0  0  0  0
 30 60  1  0  0  0  0
 32 61  1  0  0  0  0
 32 62  1  0  0  0  0
M  CHG  1  24   1
M  END
> <BIOSOLVEIT.HYDE_ESTIMATED_AFFINITY_LOWER_BOUNDARY [nM]>
47301691707.277077

> <BIOSOLVEIT.HYDE_ESTIMATED_AFFINITY_UPPER_BOUNDARY [nM]>
4699702740852.741211

> <BIOSOLVEIT.HYDE_LIGAND_EFFICIENCY range: ++, +, 0, -, -->
--

> <BIOSOLVEIT.HYDE_LIGAND_LIPOPHILIC_EFFICIENCY range: ++, +, 0, -, -->
--

> <BIOSOLVEIT.INTER_CLASH range: red, yellow, green>
yellow

> <BIOSOLVEIT.INTRA_CLASH range: red, yellow, green>
green

> <BIOSOLVEIT.LOGP>
2.56868

> <BIOSOLVEIT.MOLECULAR WEIGHT>
454.551

> <BIOSOLVEIT.MOLECULE_CHECKSUM>
MTUuMjYwMjsw

> <BIOSOLVEIT.TORSION_QUALITY range: red, yellow, green, not rotatable>
not rotatable

> <BIOSOLVEIT.TPSA>
87.76

$$$$
1S63_778_1
foHydescor03192112233D 1   1.00000     0.00000     0
Hydescorer 1.1.0 fol007
 50 53  0  0  0  0            999 V2000
   14.2906  132.0200   -4.0172 N   0  0  0  0  0  0  0  0  0  0  0  0
   15.3742  132.0965   -3.6188 C   0  0  0  0  0  0  0  0  0  0  0  0
   16.7222  132.1916   -3.1232 C   0  0  0  0  0  0  0  0  0  0  0  0
   17.7845  131.9141   -3.9779 C   0  0  0  0  0  0  0  0  0  0  0  0
   19.0922  132.0027   -3.5131 C   0  0  0  0  0  0  0  0  0  0  0  0
   19.3191  132.3697   -2.1906 C   0  0  0  0  0  0  0  0  0  0  0  0
   20.7434  132.4688   -1.6693 C   0  0  0  0  0  0  0  0  0  0  0  0
   21.4599  133.5592   -2.3347 N   0  0  0  0  0  0  0  0  0  0  0  0
   22.0684  133.4771   -3.5532 C   0  0  0  0  0  0  0  0  0  0  0  0
   22.6002  134.6505   -3.8159 N   0  0  0  0  0  0  0  0  0  0  0  0
   22.3413  135.4962   -2.7744 C   0  0  0  0  0  0  0  0  0  0  0  0
   21.6228  134.8152   -1.8356 C   0  0  0  0  0  0  0  0  0  0  0  0
   21.1078  135.3551   -0.5114 C   0  0  0  0  0  0  0  0  0  0  0  0
   22.1943  135.4813    0.4947 N   0  3  1  0  0  0  0  0  0  0  0  0
   22.9289  136.7498    0.3766 C   0  0  0  0  0  0  0  0  0  0  0  0
   21.9816  137.9268    0.5306 C   0  0  0  0  0  0  0  0  0  0  0  0
   21.0960  137.8066    1.7024 N   0  0  0  0  0  0  0  0  0  0  0  0
   20.4299  138.9529    2.1578 C   0  0  0  0  0  0  0  0  0  0  0  0
   21.0101  139.7296    3.1557 C   0  0  0  0  0  0  0  0  0  0  0  0
   20.3455  140.8669    3.6027 C   0  0  0  0  0  0  0  0  0  0  0  0
   19.1157  141.2313    3.0651 C   0  0  0  0  0  0  0  0  0  0  0  0
   18.5538  140.4405    2.0679 C   0  0  0  0  0  0  0  0  0  0  0  0
   16.9810  140.8899    1.3666 Cl  0  0  0  0  0  0  0  0  0  0  0  0
   19.2010  139.2991    1.6061 C   0  0  0  0  0  0  0  0  0  0  0  0
   20.9159  136.5773    2.3473 C   0  0  0  0  0  0  0  0  0  0  0  0
   20.1499  136.4425    3.2876 O   0  0  0  0  0  0  0  0  0  0  0  0
   21.7027  135.3613    1.8801 C   0  0  0  0  0  0  0  0  0  0  0  0
   18.2594  132.6472   -1.3331 C   0  0  0  0  0  0  0  0  0  0  0  0
   16.9522  132.5583   -1.8011 C   0  0  0  0  0  0  0  0  0  0  0  0
   17.6076  131.6510   -4.9262 H   0  0  0  0  0  0  0  0  0  0  0  0
   19.8602  131.8049   -4.1222 H   0  0  0  0  0  0  0  0  0  0  0  0
   21.2188  131.6069   -1.8457 H   0  0  0  0  0  0  0  0  0  0  0  0
   20.7219  132.6421   -0.6846 H   0  0  0  0  0  0  0  0  0  0  0  0
   22.1037  132.6690   -4.1412 H   0  0  0  0  0  0  0  0  0  0  0  0
   22.6295  136.4517   -2.7111 H   0  0  0  0  0  0  0  0  0  0  0  0
   20.4101  134.7323   -0.1576 H   0  0  0  0  0  0  0  0  0  0  0  0
   20.7030  136.2565   -0.6651 H   0  0  0  0  0  0  0  0  0  0  0  0
   22.8437  134.7376    0.3365 H   0  0  0  0  0  0  0  0  0  0  0  0
   23.3668  136.7946   -0.5213 H   0  0  0  0  0  0  0  0  0  0  0  0
   23.6275  136.7937    1.0907 H   0  0  0  0  0  0  0  0  0  0  0  0
   21.4153  137.9892   -0.2913 H   0  0  0  0  0  0  0  0  0  0  0  0
   22.5240  138.7615    0.6258 H   0  0  0  0  0  0  0  0  0  0  0  0
   21.8941  139.4734    3.5468 H   0  0  0  0  0  0  0  0  0  0  0  0
   20.7572  141.4296    4.3196 H   0  0  0  0  0  0  0  0  0  0  0  0
   18.6422  142.0497    3.3906 H   0  0  0  0  0  0  0  0  0  0  0  0
   18.7894  138.7366    0.8891 H   0  0  0  0  0  0  0  0  0  0  0  0
   21.1097  134.5582    1.9380 H   0  0  0  0  0  0  0  0  0  0  0  0
   22.4887  135.2398    2.4863 H   0  0  0  0  0  0  0  0  0  0  0  0
   18.4365  132.9094   -0.3845 H   0  0  0  0  0  0  0  0  0  0  0  0
   16.1842  132.7562   -1.1920 H   0  0  0  0  0  0  0  0  0  0  0  0
  1  2  3  0  0  0  0
  2  3  1  0  0  0  0
  3  4  2  0  0  0  0
  4  5  1  0  0  0  0
  5  6  2  0  0  0  0
  6  7  1  0  0  0  0
  7  8  1  0  0  0  0
  8  9  1  0  0  0  0
  9 10  2  0  0  0  0
 10 11  1  0  0  0  0
 11 12  2  0  0  0  0
 12 13  1  0  0  0  0
 13 14  1  0  0  0  0
 14 15  1  0  0  0  0
 15 16  1  0  0  0  0
 16 17  1  0  0  0  0
 17 18  1  0  0  0  0
 18 19  2  0  0  0  0
 19 20  1  0  0  0  0
 20 21  2  0  0  0  0
 21 22  1  0  0  0  0
 22 23  1  0  0  0  0
 22 24  2  0  0  0  0
 17 25  1  0  0  0  0
 25 26  2  0  0  0  0
 25 27  1  0  0  0  0
  6 28  1  0  0  0  0
 28 29  2  0  0  0  0
 29  3  1  0  0  0  0
 12  8  1  0  0  0  0
 27 14  1  0  0  0  0
 24 18  1  0  0  0  0
  4 30  1  0  0  0  0
  5 31  1  0  0  0  0
  7 32  1  0  0  0  0
  7 33  1  0  0  0  0
  9 34  1  0  0  0  0
 11 35  1  0  0  0  0
 13 36  1  0  0  0  0
 13 37  1  0  0  0  0
 14 38  1  0  0  0  0
 15 39  1  0  0  0  0
 15 40  1  0  0  0  0
 16 41  1  0  0  0  0
 16 42  1  0  0  0  0
 19 43  1  0  0  0  0
 20 44  1  0  0  0  0
 21 45  1  0  0  0  0
 24 46  1  0  0  0  0
 27 47  1  0  0  0  0
 27 48  1  0  0  0  0
 28 49  1  0  0  0  0
 29 50  1  0  0  0  0
M  CHG  1  14   1
M  END
> <BIOSOLVEIT.HYDE_ESTIMATED_AFFINITY_LOWER_BOUNDARY [nM]>
294990.937891

> <BIOSOLVEIT.HYDE_ESTIMATED_AFFINITY_UPPER_BOUNDARY [nM]>
29309093.803907

> <BIOSOLVEIT.HYDE_LIGAND_EFFICIENCY range: ++, +, 0, -, -->
--

> <BIOSOLVEIT.HYDE_LIGAND_LIPOPHILIC_EFFICIENCY range: ++, +, 0, -, -->
--

> <BIOSOLVEIT.INTER_CLASH range: red, yellow, green>
green

> <BIOSOLVEIT.INTRA_CLASH range: red, yellow, green>
green

> <BIOSOLVEIT.LOGP>
1.88818

> <BIOSOLVEIT.MOLECULAR WEIGHT>
406.895

> <BIOSOLVEIT.MOLECULE_CHECKSUM>
LTE0LjQ1MDQ7MC40OTgyODg=

> <BIOSOLVEIT.TORSION_QUALITY range: red, yellow, green, not rotatable>
green

> <BIOSOLVEIT.TPSA>
66.36

$$$$
1S63_778_2
foHydescor03192112233D 1   1.00000     0.00000     0
Hydescorer 1.1.0 fol007
 50 53  0  0  0  0            999 V2000
   14.4671  136.0098   -3.2099 N   0  0  0  0  0  0  0  0  0  0  0  0
   15.4872  135.6000   -2.8493 C   0  0  0  0  0  0  0  0  0  0  0  0
   16.7564  135.0902   -2.4006 C   0  0  0  0  0  0  0  0  0  0  0  0
   17.8210  135.0278   -3.2943 C   0  0  0  0  0  0  0  0  0  0  0  0
   19.0532  134.5382   -2.8748 C   0  0  0  0  0  0  0  0  0  0  0  0
   19.2026  134.1149   -1.5581 C   0  0  0  0  0  0  0  0  0  0  0  0
   20.5435  133.5762   -1.0869 C   0  0  0  0  0  0  0  0  0  0  0  0
   21.6306  134.1113   -1.9097 N   0  0  0  0  0  0  0  0  0  0  0  0
   22.1746  133.4949   -2.9985 C   0  0  0  0  0  0  0  0  0  0  0  0
   23.1185  134.2777   -3.4729 N   0  0  0  0  0  0  0  0  0  0  0  0
   23.1920  135.4008   -2.6982 C   0  0  0  0  0  0  0  0  0  0  0  0
   22.2569  135.3034   -1.7095 C   0  0  0  0  0  0  0  0  0  0  0  0
   21.9737  136.3218   -0.6174 C   0  0  0  0  0  0  0  0  0  0  0  0
   22.2785  135.7836    0.7338 N   0  3  1  0  0  0  0  0  0  0  0  0
   23.1586  136.6703    1.5097 C   0  0  0  0  0  0  0  0  0  0  0  0
   22.5267  138.0427    1.6620 C   0  0  0  0  0  0  0  0  0  0  0  0
   21.1224  137.9865    2.1057 N   0  0  0  0  0  0  0  0  0  0  0  0
   20.5342  139.1531    2.6138 C   0  0  0  0  0  0  0  0  0  0  0  0
   20.6708  139.4549    3.9651 C   0  0  0  0  0  0  0  0  0  0  0  0
   20.0864  140.6146    4.4635 C   0  0  0  0  0  0  0  0  0  0  0  0
   19.3724  141.4683    3.6294 C   0  0  0  0  0  0  0  0  0  0  0  0
   19.2486  141.1475    2.2814 C   0  0  0  0  0  0  0  0  0  0  0  0
   18.3392  142.2270    1.1973 Cl  0  0  0  0  0  0  0  0  0  0  0  0
   19.8248  139.9930    1.7619 C   0  0  0  0  0  0  0  0  0  0  0  0
   20.3858  136.7994    2.0194 C   0  0  0  0  0  0  0  0  0  0  0  0
   19.2080  136.7408    2.3337 O   0  0  0  0  0  0  0  0  0  0  0  0
   21.0643  135.5277    1.5310 C   0  0  0  0  0  0  0  0  0  0  0  0
   18.1403  134.1753   -0.6621 C   0  0  0  0  0  0  0  0  0  0  0  0
   16.9088  134.6660   -1.0845 C   0  0  0  0  0  0  0  0  0  0  0  0
   17.7000  135.3351   -4.2382 H   0  0  0  0  0  0  0  0  0  0  0  0
   19.8226  134.4909   -3.5119 H   0  0  0  0  0  0  0  0  0  0  0  0
   20.5397  132.5785   -1.1555 H   0  0  0  0  0  0  0  0  0  0  0  0
   20.6893  133.8442   -0.1345 H   0  0  0  0  0  0  0  0  0  0  0  0
   21.9038  132.6066   -3.3694 H   0  0  0  0  0  0  0  0  0  0  0  0
   23.8236  136.1642   -2.8330 H   0  0  0  0  0  0  0  0  0  0  0  0
   21.0070  136.5750   -0.6541 H   0  0  0  0  0  0  0  0  0  0  0  0
   22.5370  137.1325   -0.7772 H   0  0  0  0  0  0  0  0  0  0  0  0
   22.7536  134.9117    0.6142 H   0  0  0  0  0  0  0  0  0  0  0  0
   24.0346  136.7617    1.0361 H   0  0  0  0  0  0  0  0  0  0  0  0
   23.3092  136.2745    2.4156 H   0  0  0  0  0  0  0  0  0  0  0  0
   22.5628  138.5096    0.7784 H   0  0  0  0  0  0  0  0  0  0  0  0
   23.0528  138.5624    2.3352 H   0  0  0  0  0  0  0  0  0  0  0  0
   21.1827  138.8455    4.5705 H   0  0  0  0  0  0  0  0  0  0  0  0
   20.1808  140.8373    5.4338 H   0  0  0  0  0  0  0  0  0  0  0  0
   18.9542  142.3005    3.9934 H   0  0  0  0  0  0  0  0  0  0  0  0
   19.7305  139.7705    0.7915 H   0  0  0  0  0  0  0  0  0  0  0  0
   20.4152  135.0185    0.9660 H   0  0  0  0  0  0  0  0  0  0  0  0
   21.3172  134.9772    2.3266 H   0  0  0  0  0  0  0  0  0  0  0  0
   18.2612  133.8673    0.2816 H   0  0  0  0  0  0  0  0  0  0  0  0
   16.1396  134.7134   -0.4473 H   0  0  0  0  0  0  0  0  0  0  0  0
  1  2  3  0  0  0  0
  2  3  1  0  0  0  0
  3  4  2  0  0  0  0
  4  5  1  0  0  0  0
  5  6  2  0  0  0  0
  6  7  1  0  0  0  0
  7  8  1  0  0  0  0
  8  9  1  0  0  0  0
  9 10  2  0  0  0  0
 10 11  1  0  0  0  0
 11 12  2  0  0  0  0
 12 13  1  0  0  0  0
 13 14  1  0  0  0  0
 14 15  1  0  0  0  0
 15 16  1  0  0  0  0
 16 17  1  0  0  0  0
 17 18  1  0  0  0  0
 18 19  2  0  0  0  0
 19 20  1  0  0  0  0
 20 21  2  0  0  0  0
 21 22  1  0  0  0  0
 22 23  1  0  0  0  0
 22 24  2  0  0  0  0
 17 25  1  0  0  0  0
 25 26  2  0  0  0  0
 25 27  1  0  0  0  0
  6 28  1  0  0  0  0
 28 29  2  0  0  0  0
 29  3  1  0  0  0  0
 12  8  1  0  0  0  0
 27 14  1  0  0  0  0
 24 18  1  0  0  0  0
  4 30  1  0  0  0  0
  5 31  1  0  0  0  0
  7 32  1  0  0  0  0
  7 33  1  0  0  0  0
  9 34  1  0  0  0  0
 11 35  1  0  0  0  0
 13 36  1  0  0  0  0
 13 37  1  0  0  0  0
 14 38  1  0  0  0  0
 15 39  1  0  0  0  0
 15 40  1  0  0  0  0
 16 41  1  0  0  0  0
 16 42  1  0  0  0  0
 19 43  1  0  0  0  0
 20 44  1  0  0  0  0
 21 45  1  0  0  0  0
 24 46  1  0  0  0  0
 27 47  1  0  0  0  0
 27 48  1  0  0  0  0
 28 49  1  0  0  0  0
 29 50  1  0  0  0  0
M  CHG  1  14   1
M  END
> <BIOSOLVEIT.HYDE_ESTIMATED_AFFINITY_LOWER_BOUNDARY [nM]>
2107841.916739

> <BIOSOLVEIT.HYDE_ESTIMATED_AFFINITY_UPPER_BOUNDARY [nM]>
209426556.975762

> <BIOSOLVEIT.HYDE_LIGAND_EFFICIENCY range: ++, +, 0, -, -->
--

> <BIOSOLVEIT.HYDE_LIGAND_LIPOPHILIC_EFFICIENCY range: ++, +, 0, -, -->
--

> <BIOSOLVEIT.INTER_CLASH range: red, yellow, green>
green

> <BIOSOLVEIT.INTRA_CLASH range: red, yellow, green>
green

> <BIOSOLVEIT.LOGP>
1.88818

> <BIOSOLVEIT.MOLECULAR WEIGHT>
406.895

> <BIOSOLVEIT.MOLECULE_CHECKSUM>
LTkuNTc1NTY7MC4zMzAxOTI=

> <BIOSOLVEIT.TORSION_QUALITY range: red, yellow, green, not rotatable>
green

> <BIOSOLVEIT.TPSA>
66.36

$$$$
1S63_778_3
foHydescor03192112233D 1   1.00000     0.00000     0
Hydescorer 1.1.0 fol007
 50 53  0  0  0  0            999 V2000
   12.1184  138.9894    1.8330 N   0  0  0  0  0  0  0  0  0  0  0  0
   13.1445  138.4996    1.6172 C   0  0  0  0  0  0  0  0  0  0  0  0
   14.4920  137.8562    1.3336 C   0  0  0  0  0  0  0  0  0  0  0  0
   15.5520  138.0802    2.2066 C   0  0  0  0  0  0  0  0  0  0  0  0
   16.7906  137.4975    1.9603 C   0  0  0  0  0  0  0  0  0  0  0  0
   16.9511  136.6944    0.8358 C   0  0  0  0  0  0  0  0  0  0  0  0
   18.2873  136.0587    0.5564 C   0  0  0  0  0  0  0  0  0  0  0  0
   18.7234  135.2483    1.7033 N   0  0  0  0  0  0  0  0  0  0  0  0
   17.8986  134.5535    2.5390 C   0  0  0  0  0  0  0  0  0  0  0  0
   18.6495  133.9538    3.4366 N   0  0  0  0  0  0  0  0  0  0  0  0
   19.9591  134.2550    3.1895 C   0  0  0  0  0  0  0  0  0  0  0  0
   20.0142  135.0716    2.0979 C   0  0  0  0  0  0  0  0  0  0  0  0
   21.2519  135.6496    1.4617 C   0  0  0  0  0  0  0  0  0  0  0  0
   21.8404  134.7322    0.4781 N   0  3  1  0  0  0  0  0  0  0  0  0
   21.1865  133.4283    0.7104 C   0  0  0  0  0  0  0  0  0  0  0  0
   20.6692  132.6945   -0.5256 C   0  0  0  0  0  0  0  0  0  0  0  0
   19.8916  133.6098   -1.3717 N   0  0  0  0  0  0  0  0  0  0  0  0
   18.7163  133.1571   -1.9838 C   0  0  0  0  0  0  0  0  0  0  0  0
   17.4872  133.4379   -1.3957 C   0  0  0  0  0  0  0  0  0  0  0  0
   16.3228  132.9871   -2.0089 C   0  0  0  0  0  0  0  0  0  0  0  0
   16.3764  132.2638   -3.1954 C   0  0  0  0  0  0  0  0  0  0  0  0
   17.6160  131.9945   -3.7667 C   0  0  0  0  0  0  0  0  0  0  0  0
   17.7060  131.0708   -5.2853 Cl  0  0  0  0  0  0  0  0  0  0  0  0
   18.7927  132.4357   -3.1705 C   0  0  0  0  0  0  0  0  0  0  0  0
   20.3558  134.9216   -1.5442 C   0  0  0  0  0  0  0  0  0  0  0  0
   19.7222  135.7122   -2.2295 O   0  0  0  0  0  0  0  0  0  0  0  0
   21.6418  135.3506   -0.8523 C   0  0  0  0  0  0  0  0  0  0  0  0
   15.8938  136.4689   -0.0394 C   0  0  0  0  0  0  0  0  0  0  0  0
   14.6557  137.0527    0.2099 C   0  0  0  0  0  0  0  0  0  0  0  0
   15.4233  138.6601    3.0111 H   0  0  0  0  0  0  0  0  0  0  0  0
   17.5566  137.6539    2.5839 H   0  0  0  0  0  0  0  0  0  0  0  0
   18.9631  136.7756    0.3844 H   0  0  0  0  0  0  0  0  0  0  0  0
   18.2105  135.4726   -0.2502 H   0  0  0  0  0  0  0  0  0  0  0  0
   16.9014  134.5083    2.4796 H   0  0  0  0  0  0  0  0  0  0  0  0
   20.7437  133.9319    3.7187 H   0  0  0  0  0  0  0  0  0  0  0  0
   21.9268  135.8341    2.1762 H   0  0  0  0  0  0  0  0  0  0  0  0
   21.0104  136.5045    1.0025 H   0  0  0  0  0  0  0  0  0  0  0  0
   22.8206  134.6444    0.6563 H   0  0  0  0  0  0  0  0  0  0  0  0
   20.4086  133.5829    1.3195 H   0  0  0  0  0  0  0  0  0  0  0  0
   21.8501  132.8319    1.1621 H   0  0  0  0  0  0  0  0  0  0  0  0
   20.0861  131.9345   -0.2385 H   0  0  0  0  0  0  0  0  0  0  0  0
   21.4449  132.3405   -1.0481 H   0  0  0  0  0  0  0  0  0  0  0  0
   17.4414  133.9574   -0.5425 H   0  0  0  0  0  0  0  0  0  0  0  0
   15.4362  133.1857   -1.5913 H   0  0  0  0  0  0  0  0  0  0  0  0
   15.5361  131.9419   -3.6317 H   0  0  0  0  0  0  0  0  0  0  0  0
   19.6793  132.2373   -3.5883 H   0  0  0  0  0  0  0  0  0  0  0  0
   21.6221  136.3439   -0.7383 H   0  0  0  0  0  0  0  0  0  0  0  0
   22.4134  135.0974   -1.4359 H   0  0  0  0  0  0  0  0  0  0  0  0
   16.0229  135.8896   -0.8442 H   0  0  0  0  0  0  0  0  0  0  0  0
   13.8897  136.8960   -0.4136 H   0  0  0  0  0  0  0  0  0  0  0  0
  1  2  3  0  0  0  0
  2  3  1  0  0  0  0
  3  4  2  0  0  0  0
  4  5  1  0  0  0  0
  5  6  2  0  0  0  0
  6  7  1  0  0  0  0
  7  8  1  0  0  0  0
  8  9  1  0  0  0  0
  9 10  2  0  0  0  0
 10 11  1  0  0  0  0
 11 12  2  0  0  0  0
 12 13  1  0  0  0  0
 13 14  1  0  0  0  0
 14 15  1  0  0  0  0
 15 16  1  0  0  0  0
 16 17  1  0  0  0  0
 17 18  1  0  0  0  0
 18 19  2  0  0  0  0
 19 20  1  0  0  0  0
 20 21  2  0  0  0  0
 21 22  1  0  0  0  0
 22 23  1  0  0  0  0
 22 24  2  0  0  0  0
 17 25  1  0  0  0  0
 25 26  2  0  0  0  0
 25 27  1  0  0  0  0
  6 28  1  0  0  0  0
 28 29  2  0  0  0  0
 29  3  1  0  0  0  0
 12  8  1  0  0  0  0
 27 14  1  0  0  0  0
 24 18  1  0  0  0  0
  4 30  1  0  0  0  0
  5 31  1  0  0  0  0
  7 32  1  0  0  0  0
  7 33  1  0  0  0  0
  9 34  1  0  0  0  0
 11 35  1  0  0  0  0
 13 36  1  0  0  0  0
 13 37  1  0  0  0  0
 14 38  1  0  0  0  0
 15 39  1  0  0  0  0
 15 40  1  0  0  0  0
 16 41  1  0  0  0  0
 16 42  1  0  0  0  0
 19 43  1  0  0  0  0
 20 44  1  0  0  0  0
 21 45  1  0  0  0  0
 24 46  1  0  0  0  0
 27 47  1  0  0  0  0
 27 48  1  0  0  0  0
 28 49  1  0  0  0  0
 29 50  1  0  0  0  0
M  CHG  1  14   1
M  END
> <BIOSOLVEIT.HYDE_ESTIMATED_AFFINITY_LOWER_BOUNDARY [nM]>
223.195661

> <BIOSOLVEIT.HYDE_ESTIMATED_AFFINITY_UPPER_BOUNDARY [nM]>
22175.808551

> <BIOSOLVEIT.HYDE_LIGAND_EFFICIENCY range: ++, +, 0, -, -->
-

> <BIOSOLVEIT.HYDE_LIGAND_LIPOPHILIC_EFFICIENCY range: ++, +, 0, -, -->
0

> <BIOSOLVEIT.INTER_CLASH range: red, yellow, green>
green

> <BIOSOLVEIT.INTRA_CLASH range: red, yellow, green>
red

> <BIOSOLVEIT.LOGP>
1.88818

> <BIOSOLVEIT.MOLECULAR WEIGHT>
406.895

> <BIOSOLVEIT.MOLECULE_CHECKSUM>
LTMyLjI2NTg7MS4xMTI2MQ==

> <BIOSOLVEIT.TORSION_QUALITY range: red, yellow, green, not rotatable>
yellow

> <BIOSOLVEIT.TPSA>
66.36

$$$$
3E37_ED5_1
foHydescor03192112233D 1   1.00000     0.00000     0
Hydescorer 1.1.0 fol007
 85 88  0  0  0  0            999 V2000
   19.9893  133.2710   -1.1914 C   0  0  0  0  0  0  0  0  0  0  0  0
   20.8744  134.3969   -0.6821 C   0  0  0  0  0  0  0  0  0  0  0  0
   20.8527  134.6888    0.6779 C   0  0  0  0  0  0  0  0  0  0  0  0
   21.6533  135.7146    1.1686 C   0  0  0  0  0  0  0  0  0  0  0  0
   22.4660  136.4375    0.3016 C   0  0  0  0  0  0  0  0  0  0  0  0
   22.4889  136.1471   -1.0588 C   0  0  0  0  0  0  0  0  0  0  0  0
   21.6873  135.1209   -1.5495 C   0  0  0  0  0  0  0  0  0  0  0  0
   21.7298  134.7634   -3.2933 S   0  0  0  0  0  0  0  0  0  0  0  0
   22.9944  135.2502   -3.9433 O   0  0  0  0  0  0  0  0  0  0  0  0
   21.6822  133.2683   -3.4333 O   0  0  0  0  0  0  0  0  0  0  0  0
   20.3365  135.4642   -4.1062 N   0  0  0  0  0  0  0  0  0  0  0  0
   19.0660  134.8014   -3.7401 C   0  0  0  0  0  0  0  0  0  0  0  0
   18.3652  134.0885   -4.9120 C   0  0  0  0  0  0  0  0  0  0  0  0
   16.9858  134.5715   -5.0430 N   0  0  0  0  0  0  0  0  0  0  0  0
   16.6879  135.8749   -5.6468 C   0  0  0  0  0  0  0  0  0  0  0  0
   16.1945  135.6950   -7.0527 C   0  0  0  0  0  0  0  0  0  0  0  0
   15.9344  134.5022   -7.6609 C   0  0  0  0  0  0  0  0  0  0  0  0
   15.5068  134.7855   -8.9242 N   0  0  0  0  0  0  0  0  0  0  0  0
   15.5048  136.0916   -9.0845 C   0  0  0  0  0  0  0  0  0  0  0  0
   15.9212  136.6908   -7.9366 N   0  0  0  0  0  0  0  0  0  0  0  0
   16.0592  138.1353   -7.6982 C   0  0  0  0  0  0  0  0  0  0  0  0
   15.9532  133.8414   -4.4420 C   0  0  0  0  0  0  0  0  0  0  0  0
   14.6415  134.2898   -4.5601 C   0  0  0  0  0  0  0  0  0  0  0  0
   13.6062  133.5746   -3.9677 C   0  0  0  0  0  0  0  0  0  0  0  0
   13.9010  132.4132   -3.2620 C   0  0  0  0  0  0  0  0  0  0  0  0
   12.8384  131.6636   -2.6456 C   0  0  0  0  0  0  0  0  0  0  0  0
   11.9840  131.0600   -2.1513 N   0  0  0  0  0  0  0  0  0  0  0  0
   15.2109  131.9605   -3.1415 C   0  0  0  0  0  0  0  0  0  0  0  0
   16.2437  132.6789   -3.7352 C   0  0  0  0  0  0  0  0  0  0  0  0
   20.2731  136.9352   -3.9620 C   0  0  0  0  0  0  0  0  0  0  0  0
   19.3051  137.3501   -2.8329 C   0  0  0  0  0  0  0  0  0  0  0  0
   18.0092  137.9107   -3.4017 C   0  0  0  0  0  0  0  0  0  0  0  0
   17.2022  138.3659   -2.1979 C   0  0  0  0  0  0  0  0  0  0  0  0
   17.8916  139.5174   -1.5978 N   0  0  0  0  0  0  0  0  0  0  0  0
   17.1933  140.4399   -0.8090 C   0  0  0  0  0  0  0  0  0  0  0  0
   15.9998  140.2069   -0.4750 O   0  0  0  0  0  0  0  0  0  0  0  0
   17.8352  141.6188   -0.3951 O   0  0  0  0  0  0  0  0  0  0  0  0
   18.0713  142.0306    0.9594 C   0  0  0  0  0  0  0  0  0  0  0  0
   18.8860  140.9172    1.6355 C   0  0  0  0  0  0  0  0  0  0  0  0
   18.8880  143.3364    0.9953 C   0  0  0  0  0  0  0  0  0  0  0  0
   16.7394  142.2009    1.7148 C   0  0  0  0  0  0  0  0  0  0  0  0
   19.3344  139.6878   -1.8345 C   0  0  0  0  0  0  0  0  0  0  0  0
   19.9658  138.3005   -1.8448 C   0  0  0  0  0  0  0  0  0  0  0  0
   20.1074  133.1752   -2.1798 H   0  0  0  0  0  0  0  0  0  0  0  0
   20.2453  132.4158   -0.7407 H   0  0  0  0  0  0  0  0  0  0  0  0
   19.0328  133.4813   -0.9888 H   0  0  0  0  0  0  0  0  0  0  0  0
   20.2667  134.1660    1.2969 H   0  0  0  0  0  0  0  0  0  0  0  0
   21.6448  135.9324    2.1446 H   0  0  0  0  0  0  0  0  0  0  0  0
   23.0400  137.1739    0.6599 H   0  0  0  0  0  0  0  0  0  0  0  0
   23.0751  136.6702   -1.6773 H   0  0  0  0  0  0  0  0  0  0  0  0
   18.4436  135.4949   -3.3775 H   0  0  0  0  0  0  0  0  0  0  0  0
   19.2590  134.1234   -3.0308 H   0  0  0  0  0  0  0  0  0  0  0  0
   18.3559  133.1031   -4.7419 H   0  0  0  0  0  0  0  0  0  0  0  0
   18.8631  134.2759   -5.7587 H   0  0  0  0  0  0  0  0  0  0  0  0
   17.5186  136.4317   -5.6571 H   0  0  0  0  0  0  0  0  0  0  0  0
   15.9842  136.3361   -5.1064 H   0  0  0  0  0  0  0  0  0  0  0  0
   16.0376  133.5932   -7.2573 H   0  0  0  0  0  0  0  0  0  0  0  0
   15.2384  136.5699   -9.9213 H   0  0  0  0  0  0  0  0  0  0  0  0
   16.3845  138.2896   -6.7653 H   0  0  0  0  0  0  0  0  0  0  0  0
   16.7154  138.5191   -8.3478 H   0  0  0  0  0  0  0  0  0  0  0  0
   15.1714  138.5794   -7.8193 H   0  0  0  0  0  0  0  0  0  0  0  0
   14.4431  135.1262   -5.0710 H   0  0  0  0  0  0  0  0  0  0  0  0
   12.6613  133.8917   -4.0482 H   0  0  0  0  0  0  0  0  0  0  0  0
   15.4089  131.1237   -2.6312 H   0  0  0  0  0  0  0  0  0  0  0  0
   17.1886  132.3618   -3.6543 H   0  0  0  0  0  0  0  0  0  0  0  0
   19.9575  137.3331   -4.8234 H   0  0  0  0  0  0  0  0  0  0  0  0
   21.1872  137.2809   -3.7501 H   0  0  0  0  0  0  0  0  0  0  0  0
   19.0693  136.5195   -2.3284 H   0  0  0  0  0  0  0  0  0  0  0  0
   17.5146  137.2037   -3.9072 H   0  0  0  0  0  0  0  0  0  0  0  0
   18.1988  138.6830   -4.0080 H   0  0  0  0  0  0  0  0  0  0  0  0
   17.1389  137.6232   -1.5313 H   0  0  0  0  0  0  0  0  0  0  0  0
   16.2831  138.6336   -2.4871 H   0  0  0  0  0  0  0  0  0  0  0  0
   19.0709  141.1693    2.5854 H   0  0  0  0  0  0  0  0  0  0  0  0
   18.3665  140.0631    1.6124 H   0  0  0  0  0  0  0  0  0  0  0  0
   19.7509  140.7946    1.1487 H   0  0  0  0  0  0  0  0  0  0  0  0
   19.0422  143.6071    1.9456 H   0  0  0  0  0  0  0  0  0  0  0  0
   19.7681  143.1917    0.5429 H   0  0  0  0  0  0  0  0  0  0  0  0
   18.3839  144.0579    0.5207 H   0  0  0  0  0  0  0  0  0  0  0  0
   16.9237  142.4876    2.6549 H   0  0  0  0  0  0  0  0  0  0  0  0
   16.1833  142.8950    1.2576 H   0  0  0  0  0  0  0  0  0  0  0  0
   16.2467  141.3308    1.7221 H   0  0  0  0  0  0  0  0  0  0  0  0
   19.7369  140.2404   -1.1047 H   0  0  0  0  0  0  0  0  0  0  0  0
   19.4848  140.1376   -2.7148 H   0  0  0  0  0  0  0  0  0  0  0  0
   19.8895  137.9095   -0.9277 H   0  0  0  0  0  0  0  0  0  0  0  0
   20.9313  138.3923   -2.0888 H   0  0  0  0  0  0  0  0  0  0  0  0
  1  2  1  0  0  0  0
  2  3  2  0  0  0  0
  3  4  1  0  0  0  0
  4  5  2  0  0  0  0
  5  6  1  0  0  0  0
  6  7  2  0  0  0  0
  7  8  1  0  0  0  0
  8  9  2  0  0  0  0
  8 10  2  0  0  0  0
  8 11  1  0  0  0  0
 11 12  1  0  0  0  0
 12 13  1  0  0  0  0
 13 14  1  0  0  0  0
 14 15  1  0  0  0  0
 15 16  1  0  0  0  0
 16 17  2  0  0  0  0
 17 18  1  0  0  0  0
 18 19  2  0  0  0  0
 19 20  1  0  0  0  0
 20 21  1  0  0  0  0
 14 22  1  0  0  0  0
 22 23  2  0  0  0  0
 23 24  1  0  0  0  0
 24 25  2  0  0  0  0
 25 26  1  0  0  0  0
 26 27  3  0  0  0  0
 25 28  1  0  0  0  0
 28 29  2  0  0  0  0
 11 30  1  0  0  0  0
 30 31  1  0  0  0  0
 31 32  1  0  0  0  0
 32 33  1  0  0  0  0
 33 34  1  0  0  0  0
 34 35  1  0  0  0  0
 35 36  2  0  0  0  0
 35 37  1  0  0  0  0
 37 38  1  0  0  0  0
 38 39  1  0  0  0  0
 38 40  1  0  0  0  0
 38 41  1  0  0  0  0
 34 42  1  0  0  0  0
 42 43  1  0  0  0  0
  7  2  1  0  0  0  0
 20 16  1  0  0  0  0
 29 22  1  0  0  0  0
 43 31  1  0  0  0  0
  1 44  1  0  0  0  0
  1 45  1  0  0  0  0
  1 46  1  0  0  0  0
  3 47  1  0  0  0  0
  4 48  1  0  0  0  0
  5 49  1  0  0  0  0
  6 50  1  0  0  0  0
 12 51  1  0  0  0  0
 12 52  1  0  0  0  0
 13 53  1  0  0  0  0
 13 54  1  0  0  0  0
 15 55  1  0  0  0  0
 15 56  1  0  0  0  0
 17 57  1  0  0  0  0
 19 58  1  0  0  0  0
 21 59  1  0  0  0  0
 21 60  1  0  0  0  0
 21 61  1  0  0  0  0
 23 62  1  0  0  0  0
 24 63  1  0  0  0  0
 28 64  1  0  0  0  0
 29 65  1  0  0  0  0
 30 66  1  0  0  0  0
 30 67  1  0  0  0  0
 31 68  1  0  0  0  0
 32 69  1  0  0  0  0
 32 70  1  0  0  0  0
 33 71  1  0  0  0  0
 33 72  1  0  0  0  0
 39 73  1  0  0  0  0
 39 74  1  0  0  0  0
 39 75  1  0  0  0  0
 40 76  1  0  0  0  0
 40 77  1  0  0  0  0
 40 78  1  0  0  0  0
 41 79  1  0  0  0  0
 41 80  1  0  0  0  0
 41 81  1  0  0  0  0
 42 82  1  0  0  0  0
 42 83  1  0  0  0  0
 43 84  1  0  0  0  0
 43 85  1  0  0  0  0
M  END
> <BIOSOLVEIT.HYDE_ESTIMATED_AFFINITY_LOWER_BOUNDARY [nM]>
20866017793.249207

> <BIOSOLVEIT.HYDE_ESTIMATED_AFFINITY_UPPER_BOUNDARY [nM]>
2073162237420.121582

> <BIOSOLVEIT.HYDE_LIGAND_EFFICIENCY range: ++, +, 0, -, -->
--

> <BIOSOLVEIT.HYDE_LIGAND_LIPOPHILIC_EFFICIENCY range: ++, +, 0, -, -->
--

> <BIOSOLVEIT.INTER_CLASH range: red, yellow, green>
green

> <BIOSOLVEIT.INTRA_CLASH range: red, yellow, green>
yellow

> <BIOSOLVEIT.LOGP>
5.5954

> <BIOSOLVEIT.MOLECULAR WEIGHT>
606.787

> <BIOSOLVEIT.MOLECULE_CHECKSUM>
MTMuMjMxNDsw

> <BIOSOLVEIT.TORSION_QUALITY range: red, yellow, green, not rotatable>
red

> <BIOSOLVEIT.TPSA>
111.77

$$$$
3E37_ED5_2
foHydescor03192112233D 1   1.00000     0.00000     0
Hydescorer 1.1.0 fol007
 85 88  0  0  0  0            999 V2000
   20.4010  133.5682   -0.5684 C   0  0  0  0  0  0  0  0  0  0  0  0
   21.2875  134.7515   -0.2158 C   0  0  0  0  0  0  0  0  0  0  0  0
   21.3621  135.1458    1.1163 C   0  0  0  0  0  0  0  0  0  0  0  0
   22.1661  136.2256    1.4645 C   0  0  0  0  0  0  0  0  0  0  0  0
   22.8864  136.9006    0.4844 C   0  0  0  0  0  0  0  0  0  0  0  0
   22.8130  136.5079   -0.8481 C   0  0  0  0  0  0  0  0  0  0  0  0
   22.0081  135.4275   -1.1963 C   0  0  0  0  0  0  0  0  0  0  0  0
   21.9265  134.9391   -2.9067 S   0  0  0  0  0  0  0  0  0  0  0  0
   23.1229  135.4039   -3.6886 O   0  0  0  0  0  0  0  0  0  0  0  0
   21.9116  133.4370   -2.9311 O   0  0  0  0  0  0  0  0  0  0  0  0
   20.4552  135.5437   -3.6568 N   0  0  0  0  0  0  0  0  0  0  0  0
   19.2464  134.8131   -3.2184 C   0  0  0  0  0  0  0  0  0  0  0  0
   18.5811  133.9720   -4.3243 C   0  0  0  0  0  0  0  0  0  0  0  0
   17.2310  134.4775   -4.5980 N   0  0  0  0  0  0  0  0  0  0  0  0
   17.0195  135.7707   -5.2577 C   0  0  0  0  0  0  0  0  0  0  0  0
   16.5788  135.5633   -6.6770 C   0  0  0  0  0  0  0  0  0  0  0  0
   17.3976  135.4983   -7.7660 C   0  0  0  0  0  0  0  0  0  0  0  0
   16.5985  135.2994   -8.8526 N   0  0  0  0  0  0  0  0  0  0  0  0
   15.3469  135.2451   -8.4499 C   0  0  0  0  0  0  0  0  0  0  0  0
   15.2972  135.3992   -7.0994 N   0  0  0  0  0  0  0  0  0  0  0  0
   14.0915  135.3984   -6.2576 C   0  0  0  0  0  0  0  0  0  0  0  0
   16.1306  133.7821   -4.0821 C   0  0  0  0  0  0  0  0  0  0  0  0
   15.4879  134.2664   -2.9472 C   0  0  0  0  0  0  0  0  0  0  0  0
   14.3940  133.5853   -2.4239 C   0  0  0  0  0  0  0  0  0  0  0  0
   13.9565  132.4226   -3.0485 C   0  0  0  0  0  0  0  0  0  0  0  0
   12.8249  131.7095   -2.5173 C   0  0  0  0  0  0  0  0  0  0  0  0
   11.9142  131.1371   -2.0912 N   0  0  0  0  0  0  0  0  0  0  0  0
   14.5956  131.9346   -4.1837 C   0  0  0  0  0  0  0  0  0  0  0  0
   15.6897  132.6184   -4.7039 C   0  0  0  0  0  0  0  0  0  0  0  0
   20.3115  137.0105   -3.5285 C   0  0  0  0  0  0  0  0  0  0  0  0
   19.1250  137.3832   -2.6136 C   0  0  0  0  0  0  0  0  0  0  0  0
   19.6296  137.9200   -1.2838 C   0  0  0  0  0  0  0  0  0  0  0  0
   18.3858  138.1779   -0.4499 C   0  0  0  0  0  0  0  0  0  0  0  0
   17.6392  139.2672   -1.0974 N   0  0  0  0  0  0  0  0  0  0  0  0
   16.7192  139.9980   -0.3365 C   0  0  0  0  0  0  0  0  0  0  0  0
   16.9768  141.1884   -0.0094 O   0  0  0  0  0  0  0  0  0  0  0  0
   15.5124  139.3940    0.0534 O   0  0  0  0  0  0  0  0  0  0  0  0
   14.9018  139.4681    1.3501 C   0  0  0  0  0  0  0  0  0  0  0  0
   14.4295  140.9169    1.5460 C   0  0  0  0  0  0  0  0  0  0  0  0
   13.6809  138.5319    1.4294 C   0  0  0  0  0  0  0  0  0  0  0  0
   15.9231  139.1247    2.4513 C   0  0  0  0  0  0  0  0  0  0  0  0
   17.8530  139.5928   -2.5192 C   0  0  0  0  0  0  0  0  0  0  0  0
   18.2591  138.3880   -3.3609 C   0  0  0  0  0  0  0  0  0  0  0  0
   20.4452  133.4003   -1.5532 H   0  0  0  0  0  0  0  0  0  0  0  0
   20.7175  132.7566   -0.0773 H   0  0  0  0  0  0  0  0  0  0  0  0
   19.4570  133.7692   -0.3066 H   0  0  0  0  0  0  0  0  0  0  0  0
   20.8422  134.6572    1.8170 H   0  0  0  0  0  0  0  0  0  0  0  0
   22.2265  136.5169    2.4192 H   0  0  0  0  0  0  0  0  0  0  0  0
   23.4631  137.6764    0.7405 H   0  0  0  0  0  0  0  0  0  0  0  0
   23.3332  136.9968   -1.5483 H   0  0  0  0  0  0  0  0  0  0  0  0
   18.5792  135.4806   -2.8878 H   0  0  0  0  0  0  0  0  0  0  0  0
   19.5038  134.2009   -2.4709 H   0  0  0  0  0  0  0  0  0  0  0  0
   18.5236  133.0193   -4.0260 H   0  0  0  0  0  0  0  0  0  0  0  0
   19.1306  134.0277   -5.1580 H   0  0  0  0  0  0  0  0  0  0  0  0
   17.8747  136.2891   -5.2498 H   0  0  0  0  0  0  0  0  0  0  0  0
   16.3154  136.2817   -4.7646 H   0  0  0  0  0  0  0  0  0  0  0  0
   18.3942  135.5809   -7.7672 H   0  0  0  0  0  0  0  0  0  0  0  0
   14.5545  135.1113   -9.0451 H   0  0  0  0  0  0  0  0  0  0  0  0
   14.3524  135.5319   -5.3015 H   0  0  0  0  0  0  0  0  0  0  0  0
   13.4845  136.1397   -6.5441 H   0  0  0  0  0  0  0  0  0  0  0  0
   13.6177  134.5232   -6.3547 H   0  0  0  0  0  0  0  0  0  0  0  0
   15.8123  135.1041   -2.5079 H   0  0  0  0  0  0  0  0  0  0  0  0
   13.9278  133.9277   -1.6082 H   0  0  0  0  0  0  0  0  0  0  0  0
   14.2704  131.0972   -4.6231 H   0  0  0  0  0  0  0  0  0  0  0  0
   16.1561  132.2757   -5.5194 H   0  0  0  0  0  0  0  0  0  0  0  0
   20.1586  137.4029   -4.4355 H   0  0  0  0  0  0  0  0  0  0  0  0
   21.1525  137.3869   -3.1400 H   0  0  0  0  0  0  0  0  0  0  0  0
   18.5834  136.5603   -2.4414 H   0  0  0  0  0  0  0  0  0  0  0  0
   20.1403  138.7688   -1.4209 H   0  0  0  0  0  0  0  0  0  0  0  0
   20.2170  137.2462   -0.8355 H   0  0  0  0  0  0  0  0  0  0  0  0
   18.6459  138.4462    0.4777 H   0  0  0  0  0  0  0  0  0  0  0  0
   17.8223  137.3527   -0.4125 H   0  0  0  0  0  0  0  0  0  0  0  0
   13.9966  141.0080    2.4429 H   0  0  0  0  0  0  0  0  0  0  0  0
   15.2146  141.5338    1.4906 H   0  0  0  0  0  0  0  0  0  0  0  0
   13.7699  141.1518    0.8321 H   0  0  0  0  0  0  0  0  0  0  0  0
   13.2693  138.5971    2.3385 H   0  0  0  0  0  0  0  0  0  0  0  0
   13.0091  138.8010    0.7393 H   0  0  0  0  0  0  0  0  0  0  0  0
   13.9718  137.5899    1.2619 H   0  0  0  0  0  0  0  0  0  0  0  0
   15.4803  139.1815    3.3460 H   0  0  0  0  0  0  0  0  0  0  0  0
   16.2680  138.1970    2.3084 H   0  0  0  0  0  0  0  0  0  0  0  0
   16.6839  139.7727    2.4141 H   0  0  0  0  0  0  0  0  0  0  0  0
   18.5755  140.2814   -2.5818 H   0  0  0  0  0  0  0  0  0  0  0  0
   17.0030  139.9669   -2.8902 H   0  0  0  0  0  0  0  0  0  0  0  0
   18.7702  138.7159   -4.1554 H   0  0  0  0  0  0  0  0  0  0  0  0
   17.4287  137.9228   -3.6676 H   0  0  0  0  0  0  0  0  0  0  0  0
  1  2  1  0  0  0  0
  2  3  2  0  0  0  0
  3  4  1  0  0  0  0
  4  5  2  0  0  0  0
  5  6  1  0  0  0  0
  6  7  2  0  0  0  0
  7  8  1  0  0  0  0
  8  9  2  0  0  0  0
  8 10  2  0  0  0  0
  8 11  1  0  0  0  0
 11 12  1  0  0  0  0
 12 13  1  0  0  0  0
 13 14  1  0  0  0  0
 14 15  1  0  0  0  0
 15 16  1  0  0  0  0
 16 17  2  0  0  0  0
 17 18  1  0  0  0  0
 18 19  2  0  0  0  0
 19 20  1  0  0  0  0
 20 21  1  0  0  0  0
 14 22  1  0  0  0  0
 22 23  2  0  0  0  0
 23 24  1  0  0  0  0
 24 25  2  0  0  0  0
 25 26  1  0  0  0  0
 26 27  3  0  0  0  0
 25 28  1  0  0  0  0
 28 29  2  0  0  0  0
 11 30  1  0  0  0  0
 30 31  1  0  0  0  0
 31 32  1  0  0  0  0
 32 33  1  0  0  0  0
 33 34  1  0  0  0  0
 34 35  1  0  0  0  0
 35 36  2  0  0  0  0
 35 37  1  0  0  0  0
 37 38  1  0  0  0  0
 38 39  1  0  0  0  0
 38 40  1  0  0  0  0
 38 41  1  0  0  0  0
 34 42  1  0  0  0  0
 42 43  1  0  0  0  0
  7  2  1  0  0  0  0
 20 16  1  0  0  0  0
 29 22  1  0  0  0  0
 43 31  1  0  0  0  0
  1 44  1  0  0  0  0
  1 45  1  0  0  0  0
  1 46  1  0  0  0  0
  3 47  1  0  0  0  0
  4 48  1  0  0  0  0
  5 49  1  0  0  0  0
  6 50  1  0  0  0  0
 12 51  1  0  0  0  0
 12 52  1  0  0  0  0
 13 53  1  0  0  0  0
 13 54  1  0  0  0  0
 15 55  1  0  0  0  0
 15 56  1  0  0  0  0
 17 57  1  0  0  0  0
 19 58  1  0  0  0  0
 21 59  1  0  0  0  0
 21 60  1  0  0  0  0
 21 61  1  0  0  0  0
 23 62  1  0  0  0  0
 24 63  1  0  0  0  0
 28 64  1  0  0  0  0
 29 65  1  0  0  0  0
 30 66  1  0  0  0  0
 30 67  1  0  0  0  0
 31 68  1  0  0  0  0
 32 69  1  0  0  0  0
 32 70  1  0  0  0  0
 33 71  1  0  0  0  0
 33 72  1  0  0  0  0
 39 73  1  0  0  0  0
 39 74  1  0  0  0  0
 39 75  1  0  0  0  0
 40 76  1  0  0  0  0
 40 77  1  0  0  0  0
 40 78  1  0  0  0  0
 41 79  1  0  0  0  0
 41 80  1  0  0  0  0
 41 81  1  0  0  0  0
 42 82  1  0  0  0  0
 42 83  1  0  0  0  0
 43 84  1  0  0  0  0
 43 85  1  0  0  0  0
M  END
> <BIOSOLVEIT.HYDE_ESTIMATED_AFFINITY_LOWER_BOUNDARY [nM]>
43189920.175132

> <BIOSOLVEIT.HYDE_ESTIMATED_AFFINITY_UPPER_BOUNDARY [nM]>
4291173928.416834

> <BIOSOLVEIT.HYDE_LIGAND_EFFICIENCY range: ++, +, 0, -, -->
--

> <BIOSOLVEIT.HYDE_LIGAND_LIPOPHILIC_EFFICIENCY range: ++, +, 0, -, -->
--

> <BIOSOLVEIT.INTER_CLASH range: red, yellow, green>
green

> <BIOSOLVEIT.INTRA_CLASH range: red, yellow, green>
yellow

> <BIOSOLVEIT.LOGP>
5.5954

> <BIOSOLVEIT.MOLECULAR WEIGHT>
606.787

> <BIOSOLVEIT.MOLECULE_CHECKSUM>
LTIuMDg5MjU7MC4wNDg1ODcy

> <BIOSOLVEIT.TORSION_QUALITY range: red, yellow, green, not rotatable>
red

> <BIOSOLVEIT.TPSA>
111.77

$$$$
3E37_ED5_3
foHydescor03192112233D 1   1.00000     0.00000     0
Hydescorer 1.1.0 fol007
 85 88  0  0  0  0            999 V2000
   20.4846  133.5354   -0.5404 C   0  0  0  0  0  0  0  0  0  0  0  0
   21.3434  134.7388   -0.1873 C   0  0  0  0  0  0  0  0  0  0  0  0
   21.3957  135.1442    1.1425 C   0  0  0  0  0  0  0  0  0  0  0  0
   22.1742  136.2426    1.4911 C   0  0  0  0  0  0  0  0  0  0  0  0
   22.8912  136.9247    0.5137 C   0  0  0  0  0  0  0  0  0  0  0  0
   22.8399  136.5211   -0.8165 C   0  0  0  0  0  0  0  0  0  0  0  0
   22.0607  135.4222   -1.1651 C   0  0  0  0  0  0  0  0  0  0  0  0
   22.0073  134.9199   -2.8726 S   0  0  0  0  0  0  0  0  0  0  0  0
   23.2086  135.3922   -3.6424 O   0  0  0  0  0  0  0  0  0  0  0  0
   22.0095  133.4175   -2.8856 O   0  0  0  0  0  0  0  0  0  0  0  0
   20.5393  135.5021   -3.6468 N   0  0  0  0  0  0  0  0  0  0  0  0
   19.3275  134.7904   -3.1861 C   0  0  0  0  0  0  0  0  0  0  0  0
   18.6487  133.9324   -4.2706 C   0  0  0  0  0  0  0  0  0  0  0  0
   17.3048  134.4492   -4.5538 N   0  0  0  0  0  0  0  0  0  0  0  0
   17.1090  135.7464   -5.2105 C   0  0  0  0  0  0  0  0  0  0  0  0
   16.6434  135.5478   -6.6233 C   0  0  0  0  0  0  0  0  0  0  0  0
   17.4447  135.4705   -7.7244 C   0  0  0  0  0  0  0  0  0  0  0  0
   16.6262  135.2859   -8.7990 N   0  0  0  0  0  0  0  0  0  0  0  0
   15.3801  135.2517   -8.3777 C   0  0  0  0  0  0  0  0  0  0  0  0
   15.3532  135.4051   -7.0264 N   0  0  0  0  0  0  0  0  0  0  0  0
   14.1605  135.4232   -6.1665 C   0  0  0  0  0  0  0  0  0  0  0  0
   16.1949  133.7607   -4.0494 C   0  0  0  0  0  0  0  0  0  0  0  0
   15.5014  134.2857   -2.9636 C   0  0  0  0  0  0  0  0  0  0  0  0
   14.3974  133.6119   -2.4521 C   0  0  0  0  0  0  0  0  0  0  0  0
   14.0008  132.4156   -3.0395 C   0  0  0  0  0  0  0  0  0  0  0  0
   12.8592  131.7096   -2.5203 C   0  0  0  0  0  0  0  0  0  0  0  0
   11.9405  131.1428   -2.1039 N   0  0  0  0  0  0  0  0  0  0  0  0
   14.6906  131.8868   -4.1256 C   0  0  0  0  0  0  0  0  0  0  0  0
   15.7947  132.5635   -4.6341 C   0  0  0  0  0  0  0  0  0  0  0  0
   20.3993  136.9729   -3.5695 C   0  0  0  0  0  0  0  0  0  0  0  0
   19.1705  137.3791   -2.7276 C   0  0  0  0  0  0  0  0  0  0  0  0
   18.3744  138.4243   -3.5000 C   0  0  0  0  0  0  0  0  0  0  0  0
   18.0870  139.6765   -2.6832 C   0  0  0  0  0  0  0  0  0  0  0  0
   17.7322  139.3625   -1.2894 N   0  0  0  0  0  0  0  0  0  0  0  0
   16.8387  140.1562   -0.5595 C   0  0  0  0  0  0  0  0  0  0  0  0
   17.1792  141.3138   -0.1931 O   0  0  0  0  0  0  0  0  0  0  0  0
   15.5662  139.6514   -0.2451 O   0  0  0  0  0  0  0  0  0  0  0  0
   15.0577  139.3795    1.0692 C   0  0  0  0  0  0  0  0  0  0  0  0
   14.3340  140.6481    1.5461 C   0  0  0  0  0  0  0  0  0  0  0  0
   14.0487  138.2160    1.0309 C   0  0  0  0  0  0  0  0  0  0  0  0
   16.2101  139.0683    2.0432 C   0  0  0  0  0  0  0  0  0  0  0  0
   18.3091  138.1899   -0.6170 C   0  0  0  0  0  0  0  0  0  0  0  0
   19.5970  137.8428   -1.3421 C   0  0  0  0  0  0  0  0  0  0  0  0
   20.5428  133.3614   -1.5234 H   0  0  0  0  0  0  0  0  0  0  0  0
   20.8121  132.7339   -0.0400 H   0  0  0  0  0  0  0  0  0  0  0  0
   19.5340  133.7192   -0.2901 H   0  0  0  0  0  0  0  0  0  0  0  0
   20.8783  134.6504    1.8413 H   0  0  0  0  0  0  0  0  0  0  0  0
   22.2186  136.5419    2.4442 H   0  0  0  0  0  0  0  0  0  0  0  0
   23.4495  137.7138    0.7699 H   0  0  0  0  0  0  0  0  0  0  0  0
   23.3576  137.0154   -1.5149 H   0  0  0  0  0  0  0  0  0  0  0  0
   18.6677  135.4698   -2.8651 H   0  0  0  0  0  0  0  0  0  0  0  0
   19.5848  134.1914   -2.4279 H   0  0  0  0  0  0  0  0  0  0  0  0
   18.5790  132.9878   -3.9497 H   0  0  0  0  0  0  0  0  0  0  0  0
   19.1970  133.9609   -5.1064 H   0  0  0  0  0  0  0  0  0  0  0  0
   17.9740  136.2480   -5.2153 H   0  0  0  0  0  0  0  0  0  0  0  0
   16.4222  136.2709   -4.7072 H   0  0  0  0  0  0  0  0  0  0  0  0
   18.4424  135.5367   -7.7404 H   0  0  0  0  0  0  0  0  0  0  0  0
   14.5767  135.1315   -8.9610 H   0  0  0  0  0  0  0  0  0  0  0  0
   14.4379  135.5513   -5.2143 H   0  0  0  0  0  0  0  0  0  0  0  0
   13.5615  136.1746   -6.4432 H   0  0  0  0  0  0  0  0  0  0  0  0
   13.6709  134.5559   -6.2573 H   0  0  0  0  0  0  0  0  0  0  0  0
   15.7966  135.1473   -2.5509 H   0  0  0  0  0  0  0  0  0  0  0  0
   13.8948  133.9833   -1.6714 H   0  0  0  0  0  0  0  0  0  0  0  0
   14.3946  131.0255   -4.5385 H   0  0  0  0  0  0  0  0  0  0  0  0
   16.2972  132.1918   -5.4146 H   0  0  0  0  0  0  0  0  0  0  0  0
   20.2953  137.3387   -4.4943 H   0  0  0  0  0  0  0  0  0  0  0  0
   21.2220  137.3563   -3.1499 H   0  0  0  0  0  0  0  0  0  0  0  0
   18.5919  136.5709   -2.6174 H   0  0  0  0  0  0  0  0  0  0  0  0
   17.5039  138.0193   -3.7795 H   0  0  0  0  0  0  0  0  0  0  0  0
   18.8961  138.6862   -4.3120 H   0  0  0  0  0  0  0  0  0  0  0  0
   17.3264  140.1691   -3.1060 H   0  0  0  0  0  0  0  0  0  0  0  0
   18.9018  140.2563   -2.6853 H   0  0  0  0  0  0  0  0  0  0  0  0
   13.9644  140.4963    2.4628 H   0  0  0  0  0  0  0  0  0  0  0  0
   14.9797  141.4114    1.5691 H   0  0  0  0  0  0  0  0  0  0  0  0
   13.5870  140.8622    0.9167 H   0  0  0  0  0  0  0  0  0  0  0  0
   13.7059  138.0415    1.9540 H   0  0  0  0  0  0  0  0  0  0  0  0
   13.2851  138.4566    0.4317 H   0  0  0  0  0  0  0  0  0  0  0  0
   14.5001  137.3946    0.6822 H   0  0  0  0  0  0  0  0  0  0  0  0
   15.8371  138.8818    2.9521 H   0  0  0  0  0  0  0  0  0  0  0  0
   16.7136  138.2676    1.7188 H   0  0  0  0  0  0  0  0  0  0  0  0
   16.8274  139.8536    2.0908 H   0  0  0  0  0  0  0  0  0  0  0  0
   17.6720  137.4206   -0.6637 H   0  0  0  0  0  0  0  0  0  0  0  0
   18.5026  138.4049    0.3402 H   0  0  0  0  0  0  0  0  0  0  0  0
   20.0819  137.1114   -0.8626 H   0  0  0  0  0  0  0  0  0  0  0  0
   20.1881  138.6466   -1.4090 H   0  0  0  0  0  0  0  0  0  0  0  0
  1  2  1  0  0  0  0
  2  3  2  0  0  0  0
  3  4  1  0  0  0  0
  4  5  2  0  0  0  0
  5  6  1  0  0  0  0
  6  7  2  0  0  0  0
  7  8  1  0  0  0  0
  8  9  2  0  0  0  0
  8 10  2  0  0  0  0
  8 11  1  0  0  0  0
 11 12  1  0  0  0  0
 12 13  1  0  0  0  0
 13 14  1  0  0  0  0
 14 15  1  0  0  0  0
 15 16  1  0  0  0  0
 16 17  2  0  0  0  0
 17 18  1  0  0  0  0
 18 19  2  0  0  0  0
 19 20  1  0  0  0  0
 20 21  1  0  0  0  0
 14 22  1  0  0  0  0
 22 23  2  0  0  0  0
 23 24  1  0  0  0  0
 24 25  2  0  0  0  0
 25 26  1  0  0  0  0
 26 27  3  0  0  0  0
 25 28  1  0  0  0  0
 28 29  2  0  0  0  0
 11 30  1  0  0  0  0
 30 31  1  0  0  0  0
 31 32  1  0  0  0  0
 32 33  1  0  0  0  0
 33 34  1  0  0  0  0
 34 35  1  0  0  0  0
 35 36  2  0  0  0  0
 35 37  1  0  0  0  0
 37 38  1  0  0  0  0
 38 39  1  0  0  0  0
 38 40  1  0  0  0  0
 38 41  1  0  0  0  0
 34 42  1  0  0  0  0
 42 43  1  0  0  0  0
  7  2  1  0  0  0  0
 20 16  1  0  0  0  0
 29 22  1  0  0  0  0
 43 31  1  0  0  0  0
  1 44  1  0  0  0  0
  1 45  1  0  0  0  0
  1 46  1  0  0  0  0
  3 47  1  0  0  0  0
  4 48  1  0  0  0  0
  5 49  1  0  0  0  0
  6 50  1  0  0  0  0
 12 51  1  0  0  0  0
 12 52  1  0  0  0  0
 13 53  1  0  0  0  0
 13 54  1  0  0  0  0
 15 55  1  0  0  0  0
 15 56  1  0  0  0  0
 17 57  1  0  0  0  0
 19 58  1  0  0  0  0
 21 59  1  0  0  0  0
 21 60  1  0  0  0  0
 21 61  1  0  0  0  0
 23 62  1  0  0  0  0
 24 63  1  0  0  0  0
 28 64  1  0  0  0  0
 29 65  1  0  0  0  0
 30 66  1  0  0  0  0
 30 67  1  0  0  0  0
 31 68  1  0  0  0  0
 32 69  1  0  0  0  0
 32 70  1  0  0  0  0
 33 71  1  0  0  0  0
 33 72  1  0  0  0  0
 39 73  1  0  0  0  0
 39 74  1  0  0  0  0
 39 75  1  0  0  0  0
 40 76  1  0  0  0  0
 40 77  1  0  0  0  0
 40 78  1  0  0  0  0
 41 79  1  0  0  0  0
 41 80  1  0  0  0  0
 41 81  1  0  0  0  0
 42 82  1  0  0  0  0
 42 83  1  0  0  0  0
 43 84  1  0  0  0  0
 43 85  1  0  0  0  0
M  END
> <BIOSOLVEIT.HYDE_ESTIMATED_AFFINITY_LOWER_BOUNDARY [nM]>
33782815.878974

> <BIOSOLVEIT.HYDE_ESTIMATED_AFFINITY_UPPER_BOUNDARY [nM]>
3356522497.391160

> <BIOSOLVEIT.HYDE_LIGAND_EFFICIENCY range: ++, +, 0, -, -->
--

> <BIOSOLVEIT.HYDE_LIGAND_LIPOPHILIC_EFFICIENCY range: ++, +, 0, -, -->
--

> <BIOSOLVEIT.INTER_CLASH range: red, yellow, green>
green

> <BIOSOLVEIT.INTRA_CLASH range: red, yellow, green>
yellow

> <BIOSOLVEIT.LOGP>
5.5954

> <BIOSOLVEIT.MOLECULAR WEIGHT>
606.787

> <BIOSOLVEIT.MOLECULE_CHECKSUM>
LTIuNjk4MjI7MC4wNjI3NDky

> <BIOSOLVEIT.TORSION_QUALITY range: red, yellow, green, not rotatable>
red

> <BIOSOLVEIT.TPSA>
111.77

$$$$
2IEJ_S48_1
foHydescor03192112233D 1   1.00000     0.00000     0
Hydescorer 1.1.0 fol007
 68 72  0  0  0  0            999 V2000
   20.3488  139.2270   -5.7611 C   0  0  0  0  0  0  0  0  0  0  0  0
   20.2694  138.0343   -4.9903 O   0  0  0  0  0  0  0  0  0  0  0  0
   20.5302  136.7712   -5.5278 C   0  0  0  0  0  0  0  0  0  0  0  0
   20.9184  136.6505   -6.7210 O   0  0  0  0  0  0  0  0  0  0  0  0
   20.3434  135.5571   -4.6751 C   0  0  0  0  0  0  0  0  0  0  0  0
   20.4568  135.9142   -3.2366 N   0  0  0  0  0  0  0  0  0  0  0  0
   19.1723  135.7211   -2.5418 C   0  0  1  0  0  0  0  0  0  0  0  0
   18.3740  137.0127   -2.6510 C   0  0  0  0  0  0  0  0  0  0  0  0
   17.0124  136.7180   -2.0398 C   0  0  0  0  0  0  0  0  0  0  0  0
   16.4031  137.6305   -1.1913 C   0  0  0  0  0  0  0  0  0  0  0  0
   15.1789  137.3332   -0.6009 C   0  0  0  0  0  0  0  0  0  0  0  0
   14.5865  138.2925    0.3096 C   0  0  0  0  0  0  0  0  0  0  0  0
   15.2689  139.4679    0.6037 C   0  0  0  0  0  0  0  0  0  0  0  0
   14.6950  140.3842    1.4787 C   0  0  0  0  0  0  0  0  0  0  0  0
   13.4545  140.1286    2.0522 C   0  0  0  0  0  0  0  0  0  0  0  0
   12.7791  138.9498    1.7523 C   0  0  0  0  0  0  0  0  0  0  0  0
   13.3449  138.0273    0.8785 C   0  0  0  0  0  0  0  0  0  0  0  0
   14.5431  136.1270   -0.8766 C   0  0  0  0  0  0  0  0  0  0  0  0
   15.1595  135.2353   -1.7484 C   0  0  0  0  0  0  0  0  0  0  0  0
   16.3900  135.5132   -2.3403 C   0  0  0  0  0  0  0  0  0  0  0  0
   17.0259  134.6225   -3.2219 N   0  0  0  0  0  0  0  0  0  0  0  0
   16.2780  133.8032   -4.1879 C   0  0  0  0  0  0  0  0  0  0  0  0
   15.5274  132.6731   -3.5258 C   0  0  0  0  0  0  0  0  0  0  0  0
   14.1843  132.4506   -3.6079 C   0  0  0  0  0  0  0  0  0  0  0  0
   13.9209  131.3337   -2.8717 N   0  0  0  0  0  0  0  0  0  0  0  0
   15.0498  130.8911   -2.3606 C   0  0  0  0  0  0  0  0  0  0  0  0
   16.0728  131.6973   -2.7525 N   0  0  0  0  0  0  0  0  0  0  0  0
   17.4932  131.5499   -2.4016 C   0  0  0  0  0  0  0  0  0  0  0  0
   18.4913  134.5014   -3.1527 C   0  0  0  0  0  0  0  0  0  0  0  0
   21.8161  135.0546   -2.5247 S   0  0  0  0  0  0  0  0  0  0  0  0
   22.5919  134.3242   -3.5844 O   0  0  0  0  0  0  0  0  0  0  0  0
   22.7288  136.0228   -1.8238 O   0  0  0  0  0  0  0  0  0  0  0  0
   21.2668  133.8448   -1.3774 C   0  0  0  0  0  0  0  0  0  0  0  0
   21.3632  133.9459   -0.0233 C   0  0  0  0  0  0  0  0  0  0  0  0
   20.8224  132.7996    0.4674 N   0  0  0  0  0  0  0  0  0  0  0  0
   20.6977  132.4458    1.8885 C   0  0  0  0  0  0  0  0  0  0  0  0
   20.4128  132.0345   -0.5810 C   0  0  0  0  0  0  0  0  0  0  0  0
   20.6774  132.6597   -1.7044 N   0  0  0  0  0  0  0  0  0  0  0  0
   20.1248  140.0124   -5.1840 H   0  0  0  0  0  0  0  0  0  0  0  0
   21.2764  139.3309   -6.1199 H   0  0  0  0  0  0  0  0  0  0  0  0
   19.7010  139.1763   -6.5213 H   0  0  0  0  0  0  0  0  0  0  0  0
   21.0451  134.8823   -4.9037 H   0  0  0  0  0  0  0  0  0  0  0  0
   19.4383  135.1686   -4.8481 H   0  0  0  0  0  0  0  0  0  0  0  0
   19.3543  135.5369   -1.5759 H   0  0  0  0  0  0  0  0  0  0  0  0
   18.2741  137.2792   -3.6096 H   0  0  0  0  0  0  0  0  0  0  0  0
   18.8296  137.7463   -2.1468 H   0  0  0  0  0  0  0  0  0  0  0  0
   16.8463  138.5069   -1.0028 H   0  0  0  0  0  0  0  0  0  0  0  0
   16.1610  139.6521    0.1913 H   0  0  0  0  0  0  0  0  0  0  0  0
   15.1778  141.2324    1.6966 H   0  0  0  0  0  0  0  0  0  0  0  0
   13.0477  140.7920    2.6802 H   0  0  0  0  0  0  0  0  0  0  0  0
   11.8871  138.7657    2.1649 H   0  0  0  0  0  0  0  0  0  0  0  0
   12.8624  137.1790    0.6606 H   0  0  0  0  0  0  0  0  0  0  0  0
   13.6626  135.9058   -0.4575 H   0  0  0  0  0  0  0  0  0  0  0  0
   14.7059  134.3687   -1.9566 H   0  0  0  0  0  0  0  0  0  0  0  0
   16.9222  133.4172   -4.8481 H   0  0  0  0  0  0  0  0  0  0  0  0
   15.6221  134.3882   -4.6649 H   0  0  0  0  0  0  0  0  0  0  0  0
   13.5193  133.0017   -4.1120 H   0  0  0  0  0  0  0  0  0  0  0  0
   15.1415  130.0861   -1.7744 H   0  0  0  0  0  0  0  0  0  0  0  0
   18.0202  132.2845   -2.8291 H   0  0  0  0  0  0  0  0  0  0  0  0
   17.5981  131.5989   -1.4083 H   0  0  0  0  0  0  0  0  0  0  0  0
   17.8274  130.6660   -2.7288 H   0  0  0  0  0  0  0  0  0  0  0  0
   18.8429  134.3736   -4.0802 H   0  0  0  0  0  0  0  0  0  0  0  0
   18.7172  133.7010   -2.5974 H   0  0  0  0  0  0  0  0  0  0  0  0
   21.7507  134.7044    0.5005 H   0  0  0  0  0  0  0  0  0  0  0  0
   20.2643  131.5485    1.9719 H   0  0  0  0  0  0  0  0  0  0  0  0
   21.6060  132.4174    2.3059 H   0  0  0  0  0  0  0  0  0  0  0  0
   20.1379  133.1309    2.3547 H   0  0  0  0  0  0  0  0  0  0  0  0
   19.9784  131.1368   -0.5071 H   0  0  0  0  0  0  0  0  0  0  0  0
  1  2  1  0  0  0  0
  2  3  1  0  0  0  0
  3  4  2  0  0  0  0
  3  5  1  0  0  0  0
  5  6  1  0  0  0  0
  6  7  1  0  0  0  0
  7  8  1  0  0  0  0
  8  9  1  0  0  0  0
  9 10  2  0  0  0  0
 10 11  1  0  0  0  0
 11 12  1  0  0  0  0
 12 13  2  0  0  0  0
 13 14  1  0  0  0  0
 14 15  2  0  0  0  0
 15 16  1  0  0  0  0
 16 17  2  0  0  0  0
 11 18  2  0  0  0  0
 18 19  1  0  0  0  0
 19 20  2  0  0  0  0
 20 21  1  0  0  0  0
 21 22  1  0  0  0  0
 22 23  1  0  0  0  0
 23 24  2  0  0  0  0
 24 25  1  0  0  0  0
 25 26  2  0  0  0  0
 26 27  1  0  0  0  0
 27 28  1  0  0  0  0
 21 29  1  0  0  0  0
  6 30  1  0  0  0  0
 30 31  2  0  0  0  0
 30 32  2  0  0  0  0
 30 33  1  0  0  0  0
 33 34  2  0  0  0  0
 34 35  1  0  0  0  0
 35 36  1  0  0  0  0
 35 37  1  0  0  0  0
 37 38  2  0  0  0  0
 29  7  1  0  0  0  0
 38 33  1  0  0  0  0
 20  9  1  0  0  0  0
 27 23  1  0  0  0  0
 17 12  1  0  0  0  0
  1 39  1  0  0  0  0
  1 40  1  0  0  0  0
  1 41  1  0  0  0  0
  5 42  1  0  0  0  0
  5 43  1  0  0  0  0
  7 44  1  0  0  0  0
  8 45  1  0  0  0  0
  8 46  1  0  0  0  0
 10 47  1  0  0  0  0
 13 48  1  0  0  0  0
 14 49  1  0  0  0  0
 15 50  1  0  0  0  0
 16 51  1  0  0  0  0
 17 52  1  0  0  0  0
 18 53  1  0  0  0  0
 19 54  1  0  0  0  0
 22 55  1  0  0  0  0
 22 56  1  0  0  0  0
 24 57  1  0  0  0  0
 26 58  1  0  0  0  0
 28 59  1  0  0  0  0
 28 60  1  0  0  0  0
 28 61  1  0  0  0  0
 29 62  1  0  0  0  0
 29 63  1  0  0  0  0
 34 64  1  0  0  0  0
 36 65  1  0  0  0  0
 36 66  1  0  0  0  0
 36 67  1  0  0  0  0
 37 68  1  0  0  0  0
M  END
> <BIOSOLVEIT.HYDE_ESTIMATED_AFFINITY_LOWER_BOUNDARY [nM]>
1114604.471787

> <BIOSOLVEIT.HYDE_ESTIMATED_AFFINITY_UPPER_BOUNDARY [nM]>
110742544.335245

> <BIOSOLVEIT.HYDE_LIGAND_EFFICIENCY range: ++, +, 0, -, -->
--

> <BIOSOLVEIT.HYDE_LIGAND_LIPOPHILIC_EFFICIENCY range: ++, +, 0, -, -->
--

> <BIOSOLVEIT.INTER_CLASH range: red, yellow, green>
green

> <BIOSOLVEIT.INTRA_CLASH range: red, yellow, green>
green

> <BIOSOLVEIT.LOGP>
3.2664

> <BIOSOLVEIT.MOLECULAR WEIGHT>
534.637

> <BIOSOLVEIT.MOLECULE_CHECKSUM>
LTExLjE1NTE7MC4yOTM1NTQ=

> <BIOSOLVEIT.TORSION_QUALITY range: red, yellow, green, not rotatable>
yellow

> <BIOSOLVEIT.TPSA>
102.56

$$$$
2IEJ_S48_2
foHydescor03192112233D 1   1.00000     0.00000     0
Hydescorer 1.1.0 fol007
 68 72  0  0  0  0            999 V2000
   20.0856  139.7217   -5.5613 C   0  0  0  0  0  0  0  0  0  0  0  0
   20.0229  138.4205   -4.9902 O   0  0  0  0  0  0  0  0  0  0  0  0
   20.2808  137.2614   -5.7265 C   0  0  0  0  0  0  0  0  0  0  0  0
   20.5925  137.3331   -6.9460 O   0  0  0  0  0  0  0  0  0  0  0  0
   20.1824  135.9283   -5.0565 C   0  0  0  0  0  0  0  0  0  0  0  0
   20.4527  136.0611   -3.6008 N   0  0  0  0  0  0  0  0  0  0  0  0
   19.2270  135.8411   -2.8139 C   0  0  1  0  0  0  0  0  0  0  0  0
   18.3568  137.0845   -2.9325 C   0  0  0  0  0  0  0  0  0  0  0  0
   17.0542  136.7552   -2.2188 C   0  0  0  0  0  0  0  0  0  0  0  0
   16.4531  137.6792   -1.3770 C   0  0  0  0  0  0  0  0  0  0  0  0
   15.2861  137.3529   -0.6931 C   0  0  0  0  0  0  0  0  0  0  0  0
   14.7035  138.3276    0.2070 C   0  0  0  0  0  0  0  0  0  0  0  0
   15.3374  139.5513    0.3935 C   0  0  0  0  0  0  0  0  0  0  0  0
   14.7731  140.4821    1.2592 C   0  0  0  0  0  0  0  0  0  0  0  0
   13.5899  140.1935    1.9298 C   0  0  0  0  0  0  0  0  0  0  0  0
   12.9627  138.9666    1.7373 C   0  0  0  0  0  0  0  0  0  0  0  0
   13.5194  138.0292    0.8736 C   0  0  0  0  0  0  0  0  0  0  0  0
   14.6983  136.1042   -0.8674 C   0  0  0  0  0  0  0  0  0  0  0  0
   15.3039  135.2001   -1.7340 C   0  0  0  0  0  0  0  0  0  0  0  0
   16.4780  135.5072   -2.4188 C   0  0  0  0  0  0  0  0  0  0  0  0
   17.1024  134.6045   -3.2966 N   0  0  0  0  0  0  0  0  0  0  0  0
   16.3385  133.7007   -4.1700 C   0  0  0  0  0  0  0  0  0  0  0  0
   15.7849  132.5103   -3.4245 C   0  0  0  0  0  0  0  0  0  0  0  0
   16.5088  131.6318   -2.6731 C   0  0  0  0  0  0  0  0  0  0  0  0
   15.6297  130.7156   -2.1765 N   0  0  0  0  0  0  0  0  0  0  0  0
   14.4221  131.0171   -2.6034 C   0  0  0  0  0  0  0  0  0  0  0  0
   14.4798  132.1335   -3.3782 N   0  0  0  0  0  0  0  0  0  0  0  0
   13.3519  132.8002   -4.0459 C   0  0  0  0  0  0  0  0  0  0  0  0
   18.5735  134.5594   -3.3186 C   0  0  0  0  0  0  0  0  0  0  0  0
   21.8068  135.0288   -3.1597 S   0  0  0  0  0  0  0  0  0  0  0  0
   22.2814  134.2436   -4.3499 O   0  0  0  0  0  0  0  0  0  0  0  0
   22.9420  135.8636   -2.6343 O   0  0  0  0  0  0  0  0  0  0  0  0
   21.3367  133.8590   -1.9381 C   0  0  0  0  0  0  0  0  0  0  0  0
   21.5758  133.9786   -0.6033 C   0  0  0  0  0  0  0  0  0  0  0  0
   21.0486  132.8611   -0.0368 N   0  0  0  0  0  0  0  0  0  0  0  0
   21.0588  132.5354    1.3964 C   0  0  0  0  0  0  0  0  0  0  0  0
   20.5066  132.0947   -1.0223 C   0  0  0  0  0  0  0  0  0  0  0  0
   20.6755  132.6913   -2.1791 N   0  0  0  0  0  0  0  0  0  0  0  0
   19.8670  140.4031   -4.8628 H   0  0  0  0  0  0  0  0  0  0  0  0
   21.0072  139.8876   -5.9121 H   0  0  0  0  0  0  0  0  0  0  0  0
   19.4266  139.7890   -6.3105 H   0  0  0  0  0  0  0  0  0  0  0  0
   20.8522  135.3056   -5.4610 H   0  0  0  0  0  0  0  0  0  0  0  0
   19.2622  135.5599   -5.1888 H   0  0  0  0  0  0  0  0  0  0  0  0
   19.4796  135.7162   -1.8544 H   0  0  0  0  0  0  0  0  0  0  0  0
   18.1821  137.2958   -3.8942 H   0  0  0  0  0  0  0  0  0  0  0  0
   18.8045  137.8647   -2.4957 H   0  0  0  0  0  0  0  0  0  0  0  0
   16.8608  138.5850   -1.2610 H   0  0  0  0  0  0  0  0  0  0  0  0
   16.1883  139.7593   -0.0889 H   0  0  0  0  0  0  0  0  0  0  0  0
   15.2214  141.3648    1.4003 H   0  0  0  0  0  0  0  0  0  0  0  0
   13.1896  140.8678    2.5505 H   0  0  0  0  0  0  0  0  0  0  0  0
   12.1118  138.7587    2.2198 H   0  0  0  0  0  0  0  0  0  0  0  0
   13.0713  137.1464    0.7327 H   0  0  0  0  0  0  0  0  0  0  0  0
   13.8590  135.8619   -0.3806 H   0  0  0  0  0  0  0  0  0  0  0  0
   14.8841  134.3027   -1.8697 H   0  0  0  0  0  0  0  0  0  0  0  0
   16.9410  133.3721   -4.8974 H   0  0  0  0  0  0  0  0  0  0  0  0
   15.5775  134.2099   -4.5721 H   0  0  0  0  0  0  0  0  0  0  0  0
   17.4962  131.6552   -2.5163 H   0  0  0  0  0  0  0  0  0  0  0  0
   13.5902  130.5044   -2.3909 H   0  0  0  0  0  0  0  0  0  0  0  0
   13.6861  133.5980   -4.5479 H   0  0  0  0  0  0  0  0  0  0  0  0
   12.9179  132.1633   -4.6829 H   0  0  0  0  0  0  0  0  0  0  0  0
   12.6849  133.0930   -3.3607 H   0  0  0  0  0  0  0  0  0  0  0  0
   18.8715  134.4013   -4.2600 H   0  0  0  0  0  0  0  0  0  0  0  0
   18.8759  133.8009   -2.7413 H   0  0  0  0  0  0  0  0  0  0  0  0
   22.0415  134.7308   -0.1373 H   0  0  0  0  0  0  0  0  0  0  0  0
   20.6052  131.6561    1.5416 H   0  0  0  0  0  0  0  0  0  0  0  0
   22.0037  132.4803    1.7189 H   0  0  0  0  0  0  0  0  0  0  0  0
   20.5744  133.2483    1.9036 H   0  0  0  0  0  0  0  0  0  0  0  0
   20.0509  131.2150   -0.8863 H   0  0  0  0  0  0  0  0  0  0  0  0
  1  2  1  0  0  0  0
  2  3  1  0  0  0  0
  3  4  2  0  0  0  0
  3  5  1  0  0  0  0
  5  6  1  0  0  0  0
  6  7  1  0  0  0  0
  7  8  1  0  0  0  0
  8  9  1  0  0  0  0
  9 10  2  0  0  0  0
 10 11  1  0  0  0  0
 11 12  1  0  0  0  0
 12 13  2  0  0  0  0
 13 14  1  0  0  0  0
 14 15  2  0  0  0  0
 15 16  1  0  0  0  0
 16 17  2  0  0  0  0
 11 18  2  0  0  0  0
 18 19  1  0  0  0  0
 19 20  2  0  0  0  0
 20 21  1  0  0  0  0
 21 22  1  0  0  0  0
 22 23  1  0  0  0  0
 23 24  2  0  0  0  0
 24 25  1  0  0  0  0
 25 26  2  0  0  0  0
 26 27  1  0  0  0  0
 27 28  1  0  0  0  0
 21 29  1  0  0  0  0
  6 30  1  0  0  0  0
 30 31  2  0  0  0  0
 30 32  2  0  0  0  0
 30 33  1  0  0  0  0
 33 34  2  0  0  0  0
 34 35  1  0  0  0  0
 35 36  1  0  0  0  0
 35 37  1  0  0  0  0
 37 38  2  0  0  0  0
 29  7  1  0  0  0  0
 38 33  1  0  0  0  0
 20  9  1  0  0  0  0
 27 23  1  0  0  0  0
 17 12  1  0  0  0  0
  1 39  1  0  0  0  0
  1 40  1  0  0  0  0
  1 41  1  0  0  0  0
  5 42  1  0  0  0  0
  5 43  1  0  0  0  0
  7 44  1  0  0  0  0
  8 45  1  0  0  0  0
  8 46  1  0  0  0  0
 10 47  1  0  0  0  0
 13 48  1  0  0  0  0
 14 49  1  0  0  0  0
 15 50  1  0  0  0  0
 16 51  1  0  0  0  0
 17 52  1  0  0  0  0
 18 53  1  0  0  0  0
 19 54  1  0  0  0  0
 22 55  1  0  0  0  0
 22 56  1  0  0  0  0
 24 57  1  0  0  0  0
 26 58  1  0  0  0  0
 28 59  1  0  0  0  0
 28 60  1  0  0  0  0
 28 61  1  0  0  0  0
 29 62  1  0  0  0  0
 29 63  1  0  0  0  0
 34 64  1  0  0  0  0
 36 65  1  0  0  0  0
 36 66  1  0  0  0  0
 36 67  1  0  0  0  0
 37 68  1  0  0  0  0
M  END
> <BIOSOLVEIT.HYDE_ESTIMATED_AFFINITY_LOWER_BOUNDARY [nM]>
89407.614318

> <BIOSOLVEIT.HYDE_ESTIMATED_AFFINITY_UPPER_BOUNDARY [nM]>
8883175.102100

> <BIOSOLVEIT.HYDE_LIGAND_EFFICIENCY range: ++, +, 0, -, -->
--

> <BIOSOLVEIT.HYDE_LIGAND_LIPOPHILIC_EFFICIENCY range: ++, +, 0, -, -->
--

> <BIOSOLVEIT.INTER_CLASH range: red, yellow, green>
green

> <BIOSOLVEIT.INTRA_CLASH range: red, yellow, green>
green

> <BIOSOLVEIT.LOGP>
3.2664

> <BIOSOLVEIT.MOLECULAR WEIGHT>
534.637

> <BIOSOLVEIT.MOLECULE_CHECKSUM>
LTE3LjQwOTY7MC40NTgxNDc=

> <BIOSOLVEIT.TORSION_QUALITY range: red, yellow, green, not rotatable>
yellow

> <BIOSOLVEIT.TPSA>
102.56

$$$$
2IEJ_S48_3
foHydescor03192112233D 1   1.00000     0.00000     0
Hydescorer 1.1.0 fol007
 68 72  0  0  0  0            999 V2000
   14.2877  134.7528   -7.0806 C   0  0  0  0  0  0  0  0  0  0  0  0
   15.5493  135.3729   -6.8639 O   0  0  0  0  0  0  0  0  0  0  0  0
   16.7550  134.7843   -7.2538 C   0  0  0  0  0  0  0  0  0  0  0  0
   16.8301  134.1294   -8.3284 O   0  0  0  0  0  0  0  0  0  0  0  0
   17.9612  134.9348   -6.3831 C   0  0  0  0  0  0  0  0  0  0  0  0
   17.9414  136.2533   -5.6971 N   0  0  0  0  0  0  0  0  0  0  0  0
   17.5857  136.1039   -4.2779 C   0  0  1  0  0  0  0  0  0  0  0  0
   16.9034  137.3617   -3.7609 C   0  0  0  0  0  0  0  0  0  0  0  0
   16.2775  137.1775   -2.3917 C   0  0  0  0  0  0  0  0  0  0  0  0
   15.9677  138.3188   -1.6609 C   0  0  0  0  0  0  0  0  0  0  0  0
   15.3624  138.1912   -0.4154 C   0  0  0  0  0  0  0  0  0  0  0  0
   15.0326  139.3708    0.3619 C   0  0  0  0  0  0  0  0  0  0  0  0
   14.0041  139.3090    1.2959 C   0  0  0  0  0  0  0  0  0  0  0  0
   13.6926  140.4437    2.0374 C   0  0  0  0  0  0  0  0  0  0  0  0
   14.4006  141.6252    1.8478 C   0  0  0  0  0  0  0  0  0  0  0  0
   15.4279  141.6779    0.9109 C   0  0  0  0  0  0  0  0  0  0  0  0
   15.7467  140.5483    0.1645 C   0  0  0  0  0  0  0  0  0  0  0  0
   15.0717  136.9299    0.0915 C   0  0  0  0  0  0  0  0  0  0  0  0
   15.4019  135.8084   -0.6602 C   0  0  0  0  0  0  0  0  0  0  0  0
   16.0117  135.8972   -1.9138 C   0  0  0  0  0  0  0  0  0  0  0  0
   16.3421  134.7587   -2.6612 N   0  0  0  0  0  0  0  0  0  0  0  0
   16.4487  133.4161   -2.0616 C   0  0  0  0  0  0  0  0  0  0  0  0
   15.3824  132.4629   -2.5787 C   0  0  0  0  0  0  0  0  0  0  0  0
   15.3930  131.1054   -2.4463 C   0  0  0  0  0  0  0  0  0  0  0  0
   14.2596  130.6393   -3.0439 N   0  0  0  0  0  0  0  0  0  0  0  0
   13.5845  131.6628   -3.5216 C   0  0  0  0  0  0  0  0  0  0  0  0
   14.2510  132.8157   -3.2444 N   0  0  0  0  0  0  0  0  0  0  0  0
   13.8354  134.1800   -3.6024 C   0  0  0  0  0  0  0  0  0  0  0  0
   16.6884  134.8919   -4.0894 C   0  0  0  0  0  0  0  0  0  0  0  0
   19.4601  137.0902   -5.9918 S   0  0  0  0  0  0  0  0  0  0  0  0
   19.9278  136.8545   -7.4004 O   0  0  0  0  0  0  0  0  0  0  0  0
   19.2866  138.5674   -5.7698 O   0  0  0  0  0  0  0  0  0  0  0  0
   20.7261  136.4920   -4.9330 C   0  0  0  0  0  0  0  0  0  0  0  0
   20.8235  136.7526   -3.6005 C   0  0  0  0  0  0  0  0  0  0  0  0
   21.9396  136.0995   -3.1818 N   0  0  0  0  0  0  0  0  0  0  0  0
   22.4617  136.0805   -1.8080 C   0  0  0  0  0  0  0  0  0  0  0  0
   22.4915  135.4632   -4.2508 C   0  0  0  0  0  0  0  0  0  0  0  0
   21.7628  135.6944   -5.3177 N   0  0  0  0  0  0  0  0  0  0  0  0
   13.5615  135.3423   -6.7271 H   0  0  0  0  0  0  0  0  0  0  0  0
   14.1516  134.6074   -8.0606 H   0  0  0  0  0  0  0  0  0  0  0  0
   14.2631  133.8727   -6.6064 H   0  0  0  0  0  0  0  0  0  0  0  0
   18.7849  134.8683   -6.9463 H   0  0  0  0  0  0  0  0  0  0  0  0
   17.9663  134.2065   -5.6979 H   0  0  0  0  0  0  0  0  0  0  0  0
   18.4255  135.9610   -3.7542 H   0  0  0  0  0  0  0  0  0  0  0  0
   16.1859  137.6231   -4.4066 H   0  0  0  0  0  0  0  0  0  0  0  0
   17.5835  138.0927   -3.7045 H   0  0  0  0  0  0  0  0  0  0  0  0
   16.1786  139.2247   -2.0281 H   0  0  0  0  0  0  0  0  0  0  0  0
   13.4948  138.4594    1.4326 H   0  0  0  0  0  0  0  0  0  0  0  0
   12.9546  140.4096    2.7113 H   0  0  0  0  0  0  0  0  0  0  0  0
   14.1715  142.4371    2.3848 H   0  0  0  0  0  0  0  0  0  0  0  0
   15.9370  142.5276    0.7742 H   0  0  0  0  0  0  0  0  0  0  0  0
   16.4845  140.5824   -0.5097 H   0  0  0  0  0  0  0  0  0  0  0  0
   14.6314  136.8309    0.9839 H   0  0  0  0  0  0  0  0  0  0  0  0
   15.1949  134.9031   -0.2894 H   0  0  0  0  0  0  0  0  0  0  0  0
   16.3516  133.4989   -1.0697 H   0  0  0  0  0  0  0  0  0  0  0  0
   17.3491  133.0386   -2.2779 H   0  0  0  0  0  0  0  0  0  0  0  0
   16.0978  130.5566   -1.9967 H   0  0  0  0  0  0  0  0  0  0  0  0
   12.7155  131.6023   -4.0128 H   0  0  0  0  0  0  0  0  0  0  0  0
   14.5167  134.8334   -3.2724 H   0  0  0  0  0  0  0  0  0  0  0  0
   13.7564  134.2543   -4.5966 H   0  0  0  0  0  0  0  0  0  0  0  0
   12.9506  134.3801   -3.1819 H   0  0  0  0  0  0  0  0  0  0  0  0
   15.8528  135.0081   -4.6263 H   0  0  0  0  0  0  0  0  0  0  0  0
   17.1691  134.0698   -4.3946 H   0  0  0  0  0  0  0  0  0  0  0  0
   20.2039  137.3081   -3.0459 H   0  0  0  0  0  0  0  0  0  0  0  0
   23.2933  135.5260   -1.7751 H   0  0  0  0  0  0  0  0  0  0  0  0
   22.6720  137.0142   -1.5183 H   0  0  0  0  0  0  0  0  0  0  0  0
   21.7751  135.6881   -1.1959 H   0  0  0  0  0  0  0  0  0  0  0  0
   23.3221  134.9067   -4.2270 H   0  0  0  0  0  0  0  0  0  0  0  0
  1  2  1  0  0  0  0
  2  3  1  0  0  0  0
  3  4  2  0  0  0  0
  3  5  1  0  0  0  0
  5  6  1  0  0  0  0
  6  7  1  0  0  0  0
  7  8  1  0  0  0  0
  8  9  1  0  0  0  0
  9 10  2  0  0  0  0
 10 11  1  0  0  0  0
 11 12  1  0  0  0  0
 12 13  2  0  0  0  0
 13 14  1  0  0  0  0
 14 15  2  0  0  0  0
 15 16  1  0  0  0  0
 16 17  2  0  0  0  0
 11 18  2  0  0  0  0
 18 19  1  0  0  0  0
 19 20  2  0  0  0  0
 20 21  1  0  0  0  0
 21 22  1  0  0  0  0
 22 23  1  0  0  0  0
 23 24  2  0  0  0  0
 24 25  1  0  0  0  0
 25 26  2  0  0  0  0
 26 27  1  0  0  0  0
 27 28  1  0  0  0  0
 21 29  1  0  0  0  0
  6 30  1  0  0  0  0
 30 31  2  0  0  0  0
 30 32  2  0  0  0  0
 30 33  1  0  0  0  0
 33 34  2  0  0  0  0
 34 35  1  0  0  0  0
 35 36  1  0  0  0  0
 35 37  1  0  0  0  0
 37 38  2  0  0  0  0
 29  7  1  0  0  0  0
 38 33  1  0  0  0  0
 20  9  1  0  0  0  0
 27 23  1  0  0  0  0
 17 12  1  0  0  0  0
  1 39  1  0  0  0  0
  1 40  1  0  0  0  0
  1 41  1  0  0  0  0
  5 42  1  0  0  0  0
  5 43  1  0  0  0  0
  7 44  1  0  0  0  0
  8 45  1  0  0  0  0
  8 46  1  0  0  0  0
 10 47  1  0  0  0  0
 13 48  1  0  0  0  0
 14 49  1  0  0  0  0
 15 50  1  0  0  0  0
 16 51  1  0  0  0  0
 17 52  1  0  0  0  0
 18 53  1  0  0  0  0
 19 54  1  0  0  0  0
 22 55  1  0  0  0  0
 22 56  1  0  0  0  0
 24 57  1  0  0  0  0
 26 58  1  0  0  0  0
 28 59  1  0  0  0  0
 28 60  1  0  0  0  0
 28 61  1  0  0  0  0
 29 62  1  0  0  0  0
 29 63  1  0  0  0  0
 34 64  1  0  0  0  0
 36 65  1  0  0  0  0
 36 66  1  0  0  0  0
 36 67  1  0  0  0  0
 37 68  1  0  0  0  0
M  END
> <BIOSOLVEIT.HYDE_ESTIMATED_AFFINITY_LOWER_BOUNDARY [nM]>
3386234.512545

> <BIOSOLVEIT.HYDE_ESTIMATED_AFFINITY_UPPER_BOUNDARY [nM]>
336442419.824283

> <BIOSOLVEIT.HYDE_LIGAND_EFFICIENCY range: ++, +, 0, -, -->
--

> <BIOSOLVEIT.HYDE_LIGAND_LIPOPHILIC_EFFICIENCY range: ++, +, 0, -, -->
--

> <BIOSOLVEIT.INTER_CLASH range: red, yellow, green>
green

> <BIOSOLVEIT.INTRA_CLASH range: red, yellow, green>
red

> <BIOSOLVEIT.LOGP>
3.2664

> <BIOSOLVEIT.MOLECULAR WEIGHT>
534.637

> <BIOSOLVEIT.MOLECULE_CHECKSUM>
LTguNDAwNDswLjIyMTA2Mw==

> <BIOSOLVEIT.TORSION_QUALITY range: red, yellow, green, not rotatable>
red

> <BIOSOLVEIT.TPSA>
102.56

$$$$
