1JCQ_739_1
foHydescor03232113463D 1   1.00000     0.00000     0
Hydescorer 1.1.0 fol007
 73 73  0  0  0  0            999 V2000
   21.4344  136.2529   -4.8588 C   0  0  0  0  0  0  0  0  0  0  0  0
   21.5861  134.8559   -4.2529 C   0  0  0  0  0  0  0  0  0  0  0  0
   21.8814  134.8937   -2.7300 C   0  0  2  0  0  0  0  0  0  0  0  0
   23.3740  135.1502   -2.4473 C   0  0  0  0  0  0  0  0  0  0  0  0
   21.2989  133.6418   -1.9678 C   0  0  2  0  0  0  0  0  0  0  0  0
   19.7571  133.7323   -1.8833 C   0  0  0  0  0  0  0  0  0  0  0  0
   19.1778  132.5707   -2.4453 O   0  0  0  0  0  0  0  0  0  0  0  0
   17.8474  132.8240   -2.8644 C   0  0  2  0  0  0  0  0  0  0  0  0
   16.9125  131.7991   -2.2090 C   0  0  0  0  0  0  0  0  0  0  0  0
   15.4935  131.9906   -2.6784 C   0  0  0  0  0  0  0  0  0  0  0  0
   14.7293  130.8793   -3.0173 C   0  0  0  0  0  0  0  0  0  0  0  0
   13.4204  131.0631   -3.4502 C   0  0  0  0  0  0  0  0  0  0  0  0
   12.8821  132.3416   -3.5427 C   0  0  0  0  0  0  0  0  0  0  0  0
   13.6543  133.4477   -3.2018 C   0  0  0  0  0  0  0  0  0  0  0  0
   14.9643  133.2741   -2.7679 C   0  0  0  0  0  0  0  0  0  0  0  0
   17.7590  132.6969   -4.3623 C   0  0  0  0  0  0  0  0  0  0  0  0
   18.3443  131.7394   -4.9385 O   0  0  0  0  0  0  0  0  0  0  0  0
   16.9862  133.6388   -5.1222 N   0  0  0  0  0  0  0  0  0  0  0  0
   16.8315  133.5511   -6.5782 C   0  0  2  0  0  0  0  0  0  0  0  0
   16.9606  134.9445   -7.2186 C   0  0  0  0  0  0  0  0  0  0  0  0
   18.1892  135.6983   -6.6961 C   0  0  0  0  0  0  0  0  0  0  0  0
   18.8215  136.8375   -7.9183 S   0  0  0  0  0  0  0  0  0  0  0  0
   17.7625  138.2622   -8.0513 C   0  0  0  0  0  0  0  0  0  0  0  0
   20.2067  137.2778   -7.5357 O   0  0  0  0  0  0  0  0  0  0  0  0
   18.8758  136.1445   -9.2505 O   0  0  0  0  0  0  0  0  0  0  0  0
   15.4955  132.9476   -6.9057 C   0  0  0  0  0  0  0  0  0  0  0  0
   14.4449  133.3903   -6.3694 O   0  0  0  0  0  0  0  0  0  0  0  0
   15.4111  131.8996   -7.8138 O   0  5  0  0  0  0  0  0  0  0  0  0
   21.8568  133.4304   -0.6059 N   0  3  0  0  0  0  0  0  0  0  0  0
   21.1184  132.4271    0.1871 C   0  0  0  0  0  0  0  0  0  0  0  0
   20.9273  132.8706    1.6630 C   0  0  2  0  0  0  0  0  0  0  0  0
   22.1814  132.7292    2.4175 N   0  3  0  0  0  0  0  0  0  0  0  0
   19.8125  132.0476    2.3432 C   0  0  0  0  0  0  0  0  0  0  0  0
   18.6093  133.0984    3.1394 S   0  5  0  0  0  0  0  0  0  0  0  0
   21.2460  136.1731   -5.8376 H   0  0  0  0  0  0  0  0  0  0  0  0
   20.6778  136.7299   -4.4115 H   0  0  0  0  0  0  0  0  0  0  0  0
   22.2803  136.7688   -4.7232 H   0  0  0  0  0  0  0  0  0  0  0  0
   22.3399  134.3873   -4.7135 H   0  0  0  0  0  0  0  0  0  0  0  0
   20.7374  134.3484   -4.4019 H   0  0  0  0  0  0  0  0  0  0  0  0
   21.3911  135.6886   -2.3724 H   0  0  0  0  0  0  0  0  0  0  0  0
   23.5279  135.1683   -1.4594 H   0  0  0  0  0  0  0  0  0  0  0  0
   23.9211  134.4201   -2.8566 H   0  0  0  0  0  0  0  0  0  0  0  0
   23.6419  136.0289   -2.8425 H   0  0  0  0  0  0  0  0  0  0  0  0
   21.5211  132.8318   -2.5106 H   0  0  0  0  0  0  0  0  0  0  0  0
   19.4435  134.5370   -2.3875 H   0  0  0  0  0  0  0  0  0  0  0  0
   19.4811  133.8109   -0.9253 H   0  0  0  0  0  0  0  0  0  0  0  0
   17.5788  133.7472   -2.5894 H   0  0  0  0  0  0  0  0  0  0  0  0
   16.9472  131.9119   -1.2160 H   0  0  0  0  0  0  0  0  0  0  0  0
   17.2160  130.8773   -2.4506 H   0  0  0  0  0  0  0  0  0  0  0  0
   15.1160  129.9595   -2.9507 H   0  0  0  0  0  0  0  0  0  0  0  0
   12.8628  130.2704   -3.6965 H   0  0  0  0  0  0  0  0  0  0  0  0
   11.9401  132.4663   -3.8543 H   0  0  0  0  0  0  0  0  0  0  0  0
   13.2674  134.3674   -3.2687 H   0  0  0  0  0  0  0  0  0  0  0  0
   15.5221  134.0667   -2.5218 H   0  0  0  0  0  0  0  0  0  0  0  0
   16.5338  134.3874   -4.6375 H   0  0  0  0  0  0  0  0  0  0  0  0
   17.5506  132.9602   -6.9439 H   0  0  0  0  0  0  0  0  0  0  0  0
   16.1403  135.4756   -7.0065 H   0  0  0  0  0  0  0  0  0  0  0  0
   17.0424  134.8391   -8.2097 H   0  0  0  0  0  0  0  0  0  0  0  0
   18.9036  135.0371   -6.4669 H   0  0  0  0  0  0  0  0  0  0  0  0
   17.9329  136.2099   -5.8760 H   0  0  0  0  0  0  0  0  0  0  0  0
   18.1308  138.8883   -8.7386 H   0  0  0  0  0  0  0  0  0  0  0  0
   16.8451  137.9714   -8.3227 H   0  0  0  0  0  0  0  0  0  0  0  0
   17.7169  138.7273   -7.1672 H   0  0  0  0  0  0  0  0  0  0  0  0
   21.8318  134.3015   -0.1155 H   0  0  0  0  0  0  0  0  0  0  0  0
   22.8050  133.1260   -0.6966 H   0  0  0  0  0  0  0  0  0  0  0  0
   21.6280  131.5669    0.1728 H   0  0  0  0  0  0  0  0  0  0  0  0
   20.2186  132.2885   -0.2266 H   0  0  0  0  0  0  0  0  0  0  0  0
   20.6596  133.8341    1.6718 H   0  0  0  0  0  0  0  0  0  0  0  0
   22.7903  133.4914    2.1980 H   0  0  0  0  0  0  0  0  0  0  0  0
   21.9829  132.7328    3.3977 H   0  0  0  0  0  0  0  0  0  0  0  0
   22.6239  131.8672    2.1702 H   0  0  0  0  0  0  0  0  0  0  0  0
   20.2247  131.4487    3.0298 H   0  0  0  0  0  0  0  0  0  0  0  0
   19.3508  131.4928    1.6510 H   0  0  0  0  0  0  0  0  0  0  0  0
  1  2  1  0  0  0  0
  2  3  1  0  0  0  0
  3  4  1  0  0  0  0
  3  5  1  0  0  0  0
  5  6  1  0  0  0  0
  6  7  1  0  0  0  0
  7  8  1  0  0  0  0
  8  9  1  0  0  0  0
  9 10  1  0  0  0  0
 10 11  2  0  0  0  0
 11 12  1  0  0  0  0
 12 13  2  0  0  0  0
 13 14  1  0  0  0  0
 14 15  2  0  0  0  0
  8 16  1  0  0  0  0
 16 17  2  0  0  0  0
 16 18  1  0  0  0  0
 18 19  1  0  0  0  0
 19 20  1  0  0  0  0
 20 21  1  0  0  0  0
 21 22  1  0  0  0  0
 22 23  1  0  0  0  0
 22 24  2  0  0  0  0
 22 25  2  0  0  0  0
 19 26  1  0  0  0  0
 26 27  2  0  0  0  0
 26 28  1  0  0  0  0
  5 29  1  0  0  0  0
 29 30  1  0  0  0  0
 30 31  1  0  0  0  0
 31 32  1  0  0  0  0
 31 33  1  0  0  0  0
 33 34  1  0  0  0  0
 15 10  1  0  0  0  0
  1 35  1  0  0  0  0
  1 36  1  0  0  0  0
  1 37  1  0  0  0  0
  2 38  1  0  0  0  0
  2 39  1  0  0  0  0
  3 40  1  0  0  0  0
  4 41  1  0  0  0  0
  4 42  1  0  0  0  0
  4 43  1  0  0  0  0
  5 44  1  0  0  0  0
  6 45  1  0  0  0  0
  6 46  1  0  0  0  0
  8 47  1  0  0  0  0
  9 48  1  0  0  0  0
  9 49  1  0  0  0  0
 11 50  1  0  0  0  0
 12 51  1  0  0  0  0
 13 52  1  0  0  0  0
 14 53  1  0  0  0  0
 15 54  1  0  0  0  0
 18 55  1  0  0  0  0
 19 56  1  0  0  0  0
 20 57  1  0  0  0  0
 20 58  1  0  0  0  0
 21 59  1  0  0  0  0
 21 60  1  0  0  0  0
 23 61  1  0  0  0  0
 23 62  1  0  0  0  0
 23 63  1  0  0  0  0
 29 64  1  0  0  0  0
 29 65  1  0  0  0  0
 30 66  1  0  0  0  0
 30 67  1  0  0  0  0
 31 68  1  0  0  0  0
 32 69  1  0  0  0  0
 32 70  1  0  0  0  0
 32 71  1  0  0  0  0
 33 72  1  0  0  0  0
 33 73  1  0  0  0  0
M  CHG  4  28  -1  29   1  32   1  34  -1
M  END
> <BIOSOLVEIT.HYDE_ESTIMATED_AFFINITY_LOWER_BOUNDARY [nM]>
532.207431

> <BIOSOLVEIT.HYDE_ESTIMATED_AFFINITY_UPPER_BOUNDARY [nM]>
52877.954885

> <BIOSOLVEIT.HYDE_LIGAND_EFFICIENCY range: ++, +, 0, -, -->
-

> <BIOSOLVEIT.HYDE_LIGAND_LIPOPHILIC_EFFICIENCY range: ++, +, 0, -, -->
++

> <BIOSOLVEIT.INTER_CLASH range: red, yellow, green>
green

> <BIOSOLVEIT.INTRA_CLASH range: red, yellow, green>
green

> <BIOSOLVEIT.LOGP>
-1.9302

> <BIOSOLVEIT.MOLECULAR WEIGHT>
517.706

> <BIOSOLVEIT.MOLECULE_CHECKSUM>
LTMwLjExMTY7MC44ODU2MzU=

> <BIOSOLVEIT.TORSION_QUALITY range: red, yellow, green, not rotatable>
red

> <BIOSOLVEIT.TPSA>
156.85

$$$$
1JCQ_739_2
foHydescor03232113463D 1   1.00000     0.00000     0
Hydescorer 1.1.0 fol007
 73 73  0  0  0  0            999 V2000
   22.1282  135.5878   -4.6473 C   0  0  0  0  0  0  0  0  0  0  0  0
   22.2029  134.9805   -3.2447 C   0  0  0  0  0  0  0  0  0  0  0  0
   20.8794  134.2902   -2.8209 C   0  0  2  0  0  0  0  0  0  0  0  0
   19.8728  135.3012   -2.2392 C   0  0  0  0  0  0  0  0  0  0  0  0
   21.1191  133.0336   -1.8984 C   0  0  2  0  0  0  0  0  0  0  0  0
   19.7997  132.2506   -1.7017 C   0  0  0  0  0  0  0  0  0  0  0  0
   19.3019  131.8287   -2.9566 O   0  0  0  0  0  0  0  0  0  0  0  0
   18.0424  132.4221   -3.2239 C   0  0  2  0  0  0  0  0  0  0  0  0
   16.9443  131.5930   -2.5452 C   0  0  0  0  0  0  0  0  0  0  0  0
   15.5772  132.0977   -2.9284 C   0  0  0  0  0  0  0  0  0  0  0  0
   14.6515  131.2163   -3.4764 C   0  0  0  0  0  0  0  0  0  0  0  0
   13.3916  131.6887   -3.8283 C   0  0  0  0  0  0  0  0  0  0  0  0
   13.0611  133.0252   -3.6345 C   0  0  0  0  0  0  0  0  0  0  0  0
   13.9937  133.8998   -3.0859 C   0  0  0  0  0  0  0  0  0  0  0  0
   15.2563  133.4368   -2.7309 C   0  0  0  0  0  0  0  0  0  0  0  0
   17.8039  132.4483   -4.7105 C   0  0  0  0  0  0  0  0  0  0  0  0
   18.1829  131.4737   -5.4161 O   0  0  0  0  0  0  0  0  0  0  0  0
   17.1203  133.5584   -5.3124 N   0  0  0  0  0  0  0  0  0  0  0  0
   16.8263  133.6291   -6.7477 C   0  0  2  0  0  0  0  0  0  0  0  0
   16.8791  135.0871   -7.2372 C   0  0  0  0  0  0  0  0  0  0  0  0
   18.1147  135.8213   -6.7034 C   0  0  0  0  0  0  0  0  0  0  0  0
   18.8202  136.8948   -7.9448 S   0  0  0  0  0  0  0  0  0  0  0  0
   17.8079  138.3421   -8.1674 C   0  0  0  0  0  0  0  0  0  0  0  0
   20.2039  137.3109   -7.5314 O   0  0  0  0  0  0  0  0  0  0  0  0
   18.8988  136.1499   -9.2474 O   0  0  0  0  0  0  0  0  0  0  0  0
   15.4708  133.0383   -7.0122 C   0  0  0  0  0  0  0  0  0  0  0  0
   14.4364  133.5664   -6.5239 O   0  0  0  0  0  0  0  0  0  0  0  0
   15.3505  131.9064   -7.8089 O   0  5  0  0  0  0  0  0  0  0  0  0
   21.7123  133.3434   -0.5706 N   0  3  0  0  0  0  0  0  0  0  0  0
   21.0391  132.6606    0.5524 C   0  0  0  0  0  0  0  0  0  0  0  0
   21.1790  133.4455    1.8850 C   0  0  2  0  0  0  0  0  0  0  0  0
   22.3667  133.0024    2.6300 N   0  3  0  0  0  0  0  0  0  0  0  0
   19.9186  133.2713    2.7592 C   0  0  0  0  0  0  0  0  0  0  0  0
   18.4579  133.8895    1.9408 S   0  5  0  0  0  0  0  0  0  0  0  0
   23.0025  136.0184   -4.8712 H   0  0  0  0  0  0  0  0  0  0  0  0
   21.9315  134.8673   -5.3124 H   0  0  0  0  0  0  0  0  0  0  0  0
   21.4017  136.2744   -4.6750 H   0  0  0  0  0  0  0  0  0  0  0  0
   22.4076  135.7090   -2.5909 H   0  0  0  0  0  0  0  0  0  0  0  0
   22.9374  134.3020   -3.2283 H   0  0  0  0  0  0  0  0  0  0  0  0
   20.4670  133.9415   -3.6625 H   0  0  0  0  0  0  0  0  0  0  0  0
   19.0341  134.8236   -1.9775 H   0  0  0  0  0  0  0  0  0  0  0  0
   20.2704  135.7421   -1.4344 H   0  0  0  0  0  0  0  0  0  0  0  0
   19.6606  135.9942   -2.9282 H   0  0  0  0  0  0  0  0  0  0  0  0
   21.7564  132.4293   -2.3766 H   0  0  0  0  0  0  0  0  0  0  0  0
   19.1256  132.8417   -1.2588 H   0  0  0  0  0  0  0  0  0  0  0  0
   19.9708  131.4508   -1.1263 H   0  0  0  0  0  0  0  0  0  0  0  0
   18.0282  133.3555   -2.8652 H   0  0  0  0  0  0  0  0  0  0  0  0
   17.0511  131.6573   -1.5530 H   0  0  0  0  0  0  0  0  0  0  0  0
   17.0324  130.6380   -2.8287 H   0  0  0  0  0  0  0  0  0  0  0  0
   14.8887  130.2549   -3.6157 H   0  0  0  0  0  0  0  0  0  0  0  0
   12.7190  131.0630   -4.2233 H   0  0  0  0  0  0  0  0  0  0  0  0
   12.1531  133.3578   -3.8894 H   0  0  0  0  0  0  0  0  0  0  0  0
   13.7563  134.8612   -2.9469 H   0  0  0  0  0  0  0  0  0  0  0  0
   15.9291  134.0625   -2.3361 H   0  0  0  0  0  0  0  0  0  0  0  0
   16.8320  134.3165   -4.7274 H   0  0  0  0  0  0  0  0  0  0  0  0
   17.5124  133.0972   -7.2440 H   0  0  0  0  0  0  0  0  0  0  0  0
   16.0581  135.5641   -6.9234 H   0  0  0  0  0  0  0  0  0  0  0  0
   16.9059  135.0923   -8.2369 H   0  0  0  0  0  0  0  0  0  0  0  0
   18.8003  135.1472   -6.4282 H   0  0  0  0  0  0  0  0  0  0  0  0
   17.8499  136.3703   -5.9106 H   0  0  0  0  0  0  0  0  0  0  0  0
   18.2169  138.9309   -8.8646 H   0  0  0  0  0  0  0  0  0  0  0  0
   16.8920  138.0666   -8.4593 H   0  0  0  0  0  0  0  0  0  0  0  0
   17.7463  138.8419   -7.3034 H   0  0  0  0  0  0  0  0  0  0  0  0
   21.6540  134.3304   -0.4210 H   0  0  0  0  0  0  0  0  0  0  0  0
   22.6725  133.0639   -0.5805 H   0  0  0  0  0  0  0  0  0  0  0  0
   21.4454  131.7543    0.6683 H   0  0  0  0  0  0  0  0  0  0  0  0
   20.0677  132.5652    0.3353 H   0  0  0  0  0  0  0  0  0  0  0  0
   21.2839  134.4167    1.6708 H   0  0  0  0  0  0  0  0  0  0  0  0
   23.1015  133.6708    2.5142 H   0  0  0  0  0  0  0  0  0  0  0  0
   22.1402  132.9211    3.6007 H   0  0  0  0  0  0  0  0  0  0  0  0
   22.6663  132.1141    2.2821 H   0  0  0  0  0  0  0  0  0  0  0  0
   20.0465  133.7714    3.6156 H   0  0  0  0  0  0  0  0  0  0  0  0
   19.7928  132.2991    2.9564 H   0  0  0  0  0  0  0  0  0  0  0  0
  1  2  1  0  0  0  0
  2  3  1  0  0  0  0
  3  4  1  0  0  0  0
  3  5  1  0  0  0  0
  5  6  1  0  0  0  0
  6  7  1  0  0  0  0
  7  8  1  0  0  0  0
  8  9  1  0  0  0  0
  9 10  1  0  0  0  0
 10 11  2  0  0  0  0
 11 12  1  0  0  0  0
 12 13  2  0  0  0  0
 13 14  1  0  0  0  0
 14 15  2  0  0  0  0
  8 16  1  0  0  0  0
 16 17  2  0  0  0  0
 16 18  1  0  0  0  0
 18 19  1  0  0  0  0
 19 20  1  0  0  0  0
 20 21  1  0  0  0  0
 21 22  1  0  0  0  0
 22 23  1  0  0  0  0
 22 24  2  0  0  0  0
 22 25  2  0  0  0  0
 19 26  1  0  0  0  0
 26 27  2  0  0  0  0
 26 28  1  0  0  0  0
  5 29  1  0  0  0  0
 29 30  1  0  0  0  0
 30 31  1  0  0  0  0
 31 32  1  0  0  0  0
 31 33  1  0  0  0  0
 33 34  1  0  0  0  0
 15 10  1  0  0  0  0
  1 35  1  0  0  0  0
  1 36  1  0  0  0  0
  1 37  1  0  0  0  0
  2 38  1  0  0  0  0
  2 39  1  0  0  0  0
  3 40  1  0  0  0  0
  4 41  1  0  0  0  0
  4 42  1  0  0  0  0
  4 43  1  0  0  0  0
  5 44  1  0  0  0  0
  6 45  1  0  0  0  0
  6 46  1  0  0  0  0
  8 47  1  0  0  0  0
  9 48  1  0  0  0  0
  9 49  1  0  0  0  0
 11 50  1  0  0  0  0
 12 51  1  0  0  0  0
 13 52  1  0  0  0  0
 14 53  1  0  0  0  0
 15 54  1  0  0  0  0
 18 55  1  0  0  0  0
 19 56  1  0  0  0  0
 20 57  1  0  0  0  0
 20 58  1  0  0  0  0
 21 59  1  0  0  0  0
 21 60  1  0  0  0  0
 23 61  1  0  0  0  0
 23 62  1  0  0  0  0
 23 63  1  0  0  0  0
 29 64  1  0  0  0  0
 29 65  1  0  0  0  0
 30 66  1  0  0  0  0
 30 67  1  0  0  0  0
 31 68  1  0  0  0  0
 32 69  1  0  0  0  0
 32 70  1  0  0  0  0
 32 71  1  0  0  0  0
 33 72  1  0  0  0  0
 33 73  1  0  0  0  0
M  CHG  4  28  -1  29   1  32   1  34  -1
M  END
> <BIOSOLVEIT.HYDE_ESTIMATED_AFFINITY_LOWER_BOUNDARY [nM]>
7553893.149591

> <BIOSOLVEIT.HYDE_ESTIMATED_AFFINITY_UPPER_BOUNDARY [nM]>
750523946.562733

> <BIOSOLVEIT.HYDE_LIGAND_EFFICIENCY range: ++, +, 0, -, -->
--

> <BIOSOLVEIT.HYDE_LIGAND_LIPOPHILIC_EFFICIENCY range: ++, +, 0, -, -->
-

> <BIOSOLVEIT.INTER_CLASH range: red, yellow, green>
green

> <BIOSOLVEIT.INTRA_CLASH range: red, yellow, green>
green

> <BIOSOLVEIT.LOGP>
-1.9302

> <BIOSOLVEIT.MOLECULAR WEIGHT>
517.706

> <BIOSOLVEIT.MOLECULE_CHECKSUM>
LTYuNDExNDI7MC4xODg1NzE=

> <BIOSOLVEIT.TORSION_QUALITY range: red, yellow, green, not rotatable>
red

> <BIOSOLVEIT.TPSA>
156.85

$$$$
1JCQ_739_3
foHydescor03232113463D 1   1.00000     0.00000     0
Hydescorer 1.1.0 fol007
 73 73  0  0  0  0            999 V2000
   18.4927  136.3828    0.0646 C   0  0  0  0  0  0  0  0  0  0  0  0
   18.9293  134.9699   -0.3287 C   0  0  0  0  0  0  0  0  0  0  0  0
   20.3097  134.9464   -1.0370 C   0  0  2  0  0  0  0  0  0  0  0  0
   20.2611  135.6641   -2.3994 C   0  0  0  0  0  0  0  0  0  0  0  0
   20.9314  133.4985   -1.1062 C   0  0  2  0  0  0  0  0  0  0  0  0
   19.8137  132.4390   -1.2505 C   0  0  0  0  0  0  0  0  0  0  0  0
   19.5276  132.2285   -2.6196 O   0  0  0  0  0  0  0  0  0  0  0  0
   18.2324  132.7060   -2.9424 C   0  0  2  0  0  0  0  0  0  0  0  0
   17.1876  131.8492   -2.2157 C   0  0  0  0  0  0  0  0  0  0  0  0
   15.7951  132.1995   -2.6727 C   0  0  0  0  0  0  0  0  0  0  0  0
   14.9784  131.2057   -3.2013 C   0  0  0  0  0  0  0  0  0  0  0  0
   13.6943  131.5358   -3.6216 C   0  0  0  0  0  0  0  0  0  0  0  0
   13.2324  132.8427   -3.5146 C   0  0  0  0  0  0  0  0  0  0  0  0
   14.0566  133.8305   -2.9848 C   0  0  0  0  0  0  0  0  0  0  0  0
   15.3423  133.5102   -2.5617 C   0  0  0  0  0  0  0  0  0  0  0  0
   18.0156  132.6065   -4.4293 C   0  0  0  0  0  0  0  0  0  0  0  0
   18.4793  131.6161   -5.0582 O   0  0  0  0  0  0  0  0  0  0  0  0
   17.2580  133.6138   -5.1172 N   0  0  0  0  0  0  0  0  0  0  0  0
   16.9816  133.5579   -6.5567 C   0  0  2  0  0  0  0  0  0  0  0  0
   17.0512  134.9660   -7.1736 C   0  0  0  0  0  0  0  0  0  0  0  0
   18.2637  135.7518   -6.6608 C   0  0  0  0  0  0  0  0  0  0  0  0
   18.8692  136.8922   -7.8953 S   0  0  0  0  0  0  0  0  0  0  0  0
   17.7919  138.3036   -8.0238 C   0  0  0  0  0  0  0  0  0  0  0  0
   20.2530  137.3509   -7.5299 O   0  0  0  0  0  0  0  0  0  0  0  0
   18.9174  136.1932   -9.2246 O   0  0  0  0  0  0  0  0  0  0  0  0
   15.6250  132.9545   -6.7844 C   0  0  0  0  0  0  0  0  0  0  0  0
   14.6125  133.4149   -6.1925 O   0  0  0  0  0  0  0  0  0  0  0  0
   15.4786  131.8867   -7.6611 O   0  5  0  0  0  0  0  0  0  0  0  0
   21.8038  133.1428    0.0442 N   0  3  0  0  0  0  0  0  0  0  0  0
   21.0571  132.8367    1.2808 C   0  0  0  0  0  0  0  0  0  0  0  0
   21.3550  133.8562    2.4137 C   0  0  2  0  0  0  0  0  0  0  0  0
   22.6133  133.5239    3.0979 N   0  3  0  0  0  0  0  0  0  0  0  0
   20.1986  133.8941    3.4356 C   0  0  0  0  0  0  0  0  0  0  0  0
   18.8570  132.8201    2.9536 S   0  5  0  0  0  0  0  0  0  0  0  0
   17.6010  136.3427    0.5154 H   0  0  0  0  0  0  0  0  0  0  0  0
   19.1653  136.7774    0.6906 H   0  0  0  0  0  0  0  0  0  0  0  0
   18.4264  136.9516   -0.7552 H   0  0  0  0  0  0  0  0  0  0  0  0
   18.2452  134.5842   -0.9478 H   0  0  0  0  0  0  0  0  0  0  0  0
   18.9841  134.4100    0.4980 H   0  0  0  0  0  0  0  0  0  0  0  0
   20.9255  135.4850   -0.4619 H   0  0  0  0  0  0  0  0  0  0  0  0
   21.1646  135.6299   -2.8266 H   0  0  0  0  0  0  0  0  0  0  0  0
   19.5950  135.2106   -2.9915 H   0  0  0  0  0  0  0  0  0  0  0  0
   19.9921  136.6178   -2.2643 H   0  0  0  0  0  0  0  0  0  0  0  0
   21.4934  133.4540   -1.9321 H   0  0  0  0  0  0  0  0  0  0  0  0
   18.9893  132.7604   -0.7846 H   0  0  0  0  0  0  0  0  0  0  0  0
   20.1158  131.5795   -0.8383 H   0  0  0  0  0  0  0  0  0  0  0  0
   18.1444  133.6594   -2.6535 H   0  0  0  0  0  0  0  0  0  0  0  0
   17.2594  132.0098   -1.2313 H   0  0  0  0  0  0  0  0  0  0  0  0
   17.3630  130.8840   -2.4097 H   0  0  0  0  0  0  0  0  0  0  0  0
   15.3102  130.2655   -3.2782 H   0  0  0  0  0  0  0  0  0  0  0  0
   13.0995  130.8284   -4.0034 H   0  0  0  0  0  0  0  0  0  0  0  0
   12.3078  133.0728   -3.8183 H   0  0  0  0  0  0  0  0  0  0  0  0
   13.7247  134.7707   -2.9081 H   0  0  0  0  0  0  0  0  0  0  0  0
   15.9374  134.2175   -2.1802 H   0  0  0  0  0  0  0  0  0  0  0  0
   16.9033  134.3872   -4.5919 H   0  0  0  0  0  0  0  0  0  0  0  0
   17.6696  132.9795   -6.9950 H   0  0  0  0  0  0  0  0  0  0  0  0
   16.2178  135.4652   -6.9363 H   0  0  0  0  0  0  0  0  0  0  0  0
   17.1171  134.8811   -8.1679 H   0  0  0  0  0  0  0  0  0  0  0  0
   18.9928  135.1088   -6.4262 H   0  0  0  0  0  0  0  0  0  0  0  0
   17.9975  136.2658   -5.8454 H   0  0  0  0  0  0  0  0  0  0  0  0
   18.1452  138.9305   -8.7181 H   0  0  0  0  0  0  0  0  0  0  0  0
   16.8751  138.0006   -8.2838 H   0  0  0  0  0  0  0  0  0  0  0  0
   17.7502  138.7725   -7.1415 H   0  0  0  0  0  0  0  0  0  0  0  0
   22.4155  133.9126    0.2267 H   0  0  0  0  0  0  0  0  0  0  0  0
   22.3443  132.3395   -0.2057 H   0  0  0  0  0  0  0  0  0  0  0  0
   21.3144  131.9227    1.5943 H   0  0  0  0  0  0  0  0  0  0  0  0
   20.0779  132.8566    1.0789 H   0  0  0  0  0  0  0  0  0  0  0  0
   21.4468  134.7646    2.0059 H   0  0  0  0  0  0  0  0  0  0  0  0
   23.1758  134.3467    3.1795 H   0  0  0  0  0  0  0  0  0  0  0  0
   22.4125  133.1656    4.0097 H   0  0  0  0  0  0  0  0  0  0  0  0
   23.1077  132.8333    2.5699 H   0  0  0  0  0  0  0  0  0  0  0  0
   19.8557  134.8311    3.5025 H   0  0  0  0  0  0  0  0  0  0  0  0
   20.5441  133.6011    4.3271 H   0  0  0  0  0  0  0  0  0  0  0  0
  1  2  1  0  0  0  0
  2  3  1  0  0  0  0
  3  4  1  0  0  0  0
  3  5  1  0  0  0  0
  5  6  1  0  0  0  0
  6  7  1  0  0  0  0
  7  8  1  0  0  0  0
  8  9  1  0  0  0  0
  9 10  1  0  0  0  0
 10 11  2  0  0  0  0
 11 12  1  0  0  0  0
 12 13  2  0  0  0  0
 13 14  1  0  0  0  0
 14 15  2  0  0  0  0
  8 16  1  0  0  0  0
 16 17  2  0  0  0  0
 16 18  1  0  0  0  0
 18 19  1  0  0  0  0
 19 20  1  0  0  0  0
 20 21  1  0  0  0  0
 21 22  1  0  0  0  0
 22 23  1  0  0  0  0
 22 24  2  0  0  0  0
 22 25  2  0  0  0  0
 19 26  1  0  0  0  0
 26 27  2  0  0  0  0
 26 28  1  0  0  0  0
  5 29  1  0  0  0  0
 29 30  1  0  0  0  0
 30 31  1  0  0  0  0
 31 32  1  0  0  0  0
 31 33  1  0  0  0  0
 33 34  1  0  0  0  0
 15 10  1  0  0  0  0
  1 35  1  0  0  0  0
  1 36  1  0  0  0  0
  1 37  1  0  0  0  0
  2 38  1  0  0  0  0
  2 39  1  0  0  0  0
  3 40  1  0  0  0  0
  4 41  1  0  0  0  0
  4 42  1  0  0  0  0
  4 43  1  0  0  0  0
  5 44  1  0  0  0  0
  6 45  1  0  0  0  0
  6 46  1  0  0  0  0
  8 47  1  0  0  0  0
  9 48  1  0  0  0  0
  9 49  1  0  0  0  0
 11 50  1  0  0  0  0
 12 51  1  0  0  0  0
 13 52  1  0  0  0  0
 14 53  1  0  0  0  0
 15 54  1  0  0  0  0
 18 55  1  0  0  0  0
 19 56  1  0  0  0  0
 20 57  1  0  0  0  0
 20 58  1  0  0  0  0
 21 59  1  0  0  0  0
 21 60  1  0  0  0  0
 23 61  1  0  0  0  0
 23 62  1  0  0  0  0
 23 63  1  0  0  0  0
 29 64  1  0  0  0  0
 29 65  1  0  0  0  0
 30 66  1  0  0  0  0
 30 67  1  0  0  0  0
 31 68  1  0  0  0  0
 32 69  1  0  0  0  0
 32 70  1  0  0  0  0
 32 71  1  0  0  0  0
 33 72  1  0  0  0  0
 33 73  1  0  0  0  0
M  CHG  4  28  -1  29   1  32   1  34  -1
M  END
> <BIOSOLVEIT.HYDE_ESTIMATED_AFFINITY_LOWER_BOUNDARY [nM]>
5054.564508

> <BIOSOLVEIT.HYDE_ESTIMATED_AFFINITY_UPPER_BOUNDARY [nM]>
502200.868802

> <BIOSOLVEIT.HYDE_LIGAND_EFFICIENCY range: ++, +, 0, -, -->
--

> <BIOSOLVEIT.HYDE_LIGAND_LIPOPHILIC_EFFICIENCY range: ++, +, 0, -, -->
+

> <BIOSOLVEIT.INTER_CLASH range: red, yellow, green>
green

> <BIOSOLVEIT.INTRA_CLASH range: red, yellow, green>
green

> <BIOSOLVEIT.LOGP>
-1.9302

> <BIOSOLVEIT.MOLECULAR WEIGHT>
517.706

> <BIOSOLVEIT.MOLECULE_CHECKSUM>
LTI0LjUzMTQ7MC43MjE1MTI=

> <BIOSOLVEIT.TORSION_QUALITY range: red, yellow, green, not rotatable>
red

> <BIOSOLVEIT.TPSA>
156.85

$$$$
1SA4_JAN_1
foHydescor03232113463D 1   1.00000     0.00000     0
Hydescorer 1.1.0 fol007
 57 61  0  0  0  0            999 V2000
   16.4177  132.1450   -5.6568 C   0  0  0  0  0  0  0  0  0  0  0  0
   15.3171  132.4139   -4.7197 N   0  0  0  0  0  0  0  0  0  0  0  0
   14.0526  131.9113   -4.8210 C   0  0  0  0  0  0  0  0  0  0  0  0
   13.3559  132.3704   -3.8046 N   0  0  0  0  0  0  0  0  0  0  0  0
   14.1604  133.1694   -3.0423 C   0  0  0  0  0  0  0  0  0  0  0  0
   15.3991  133.2025   -3.6132 C   0  0  0  0  0  0  0  0  0  0  0  0
   16.6342  133.9709   -3.1018 C   0  0  2  0  0  0  0  0  0  0  0  0
   17.6772  132.9418   -2.8743 N   0  3  0  0  0  0  0  0  0  0  0  0
   16.2987  134.7571   -1.8187 C   0  0  0  0  0  0  0  0  0  0  0  0
   15.3710  135.7926   -1.8776 C   0  0  0  0  0  0  0  0  0  0  0  0
   15.0564  136.5110   -0.7288 C   0  0  0  0  0  0  0  0  0  0  0  0
   15.6800  136.1803    0.4692 C   0  0  0  0  0  0  0  0  0  0  0  0
   15.2886  137.0900    1.9484 Cl  0  0  0  0  0  0  0  0  0  0  0  0
   16.6071  135.1455    0.5301 C   0  0  0  0  0  0  0  0  0  0  0  0
   16.9208  134.4277   -0.6193 C   0  0  0  0  0  0  0  0  0  0  0  0
   17.1235  134.9903   -4.1095 C   0  0  0  0  0  0  0  0  0  0  0  0
   16.2511  135.4752   -5.0742 C   0  0  0  0  0  0  0  0  0  0  0  0
   16.7468  136.4085   -5.9748 C   0  0  0  0  0  0  0  0  0  0  0  0
   18.0675  136.8421   -5.9140 C   0  0  0  0  0  0  0  0  0  0  0  0
   18.9113  136.3353   -4.9356 C   0  0  0  0  0  0  0  0  0  0  0  0
   18.4453  135.3994   -4.0193 C   0  0  0  0  0  0  0  0  0  0  0  0
   20.2923  136.7837   -4.8773 C   0  0  0  0  0  0  0  0  0  0  0  0
   21.2119  136.2761   -3.8775 C   0  0  0  0  0  0  0  0  0  0  0  0
   22.0515  135.2148   -4.1985 C   0  0  0  0  0  0  0  0  0  0  0  0
   22.9306  134.7338   -3.2334 C   0  0  0  0  0  0  0  0  0  0  0  0
   22.9768  135.2992   -1.9635 C   0  0  0  0  0  0  0  0  0  0  0  0
   22.1279  136.3598   -1.6647 C   0  0  0  0  0  0  0  0  0  0  0  0
   22.1707  137.0964   -0.0449 Cl  0  0  0  0  0  0  0  0  0  0  0  0
   21.2405  136.8564   -2.6138 C   0  0  0  0  0  0  0  0  0  0  0  0
   20.7821  137.6687   -5.7266 C   0  0  0  0  0  0  0  0  0  0  0  0
   19.9141  138.2126   -6.7532 C   0  0  0  0  0  0  0  0  0  0  0  0
   20.3665  139.0310   -7.5376 O   0  0  0  0  0  0  0  0  0  0  0  0
   18.5817  137.7827   -6.8158 N   0  0  0  0  0  0  0  0  0  0  0  0
   17.7442  138.3629   -7.8791 C   0  0  0  0  0  0  0  0  0  0  0  0
   17.2376  132.6325   -5.3566 H   0  0  0  0  0  0  0  0  0  0  0  0
   16.6035  131.1627   -5.6797 H   0  0  0  0  0  0  0  0  0  0  0  0
   16.1605  132.4569   -6.5715 H   0  0  0  0  0  0  0  0  0  0  0  0
   13.7160  131.3028   -5.5395 H   0  0  0  0  0  0  0  0  0  0  0  0
   13.8878  133.6484   -2.2079 H   0  0  0  0  0  0  0  0  0  0  0  0
   18.0349  132.6294   -3.7543 H   0  0  0  0  0  0  0  0  0  0  0  0
   18.4206  133.3346   -2.3328 H   0  0  0  0  0  0  0  0  0  0  0  0
   17.2796  132.1673   -2.3822 H   0  0  0  0  0  0  0  0  0  0  0  0
   14.9305  136.0203   -2.7460 H   0  0  0  0  0  0  0  0  0  0  0  0
   14.3902  137.2560   -0.7641 H   0  0  0  0  0  0  0  0  0  0  0  0
   17.0474  134.9179    1.3986 H   0  0  0  0  0  0  0  0  0  0  0  0
   17.5868  133.6826   -0.5836 H   0  0  0  0  0  0  0  0  0  0  0  0
   15.3018  135.1642   -5.1189 H   0  0  0  0  0  0  0  0  0  0  0  0
   16.1424  136.7765   -6.6814 H   0  0  0  0  0  0  0  0  0  0  0  0
   19.0487  135.0303   -3.3125 H   0  0  0  0  0  0  0  0  0  0  0  0
   22.0237  134.8035   -5.1096 H   0  0  0  0  0  0  0  0  0  0  0  0
   23.5376  133.9709   -3.4558 H   0  0  0  0  0  0  0  0  0  0  0  0
   23.6114  134.9482   -1.2749 H   0  0  0  0  0  0  0  0  0  0  0  0
   20.6327  137.6186   -2.3910 H   0  0  0  0  0  0  0  0  0  0  0  0
   21.7369  137.9593   -5.6627 H   0  0  0  0  0  0  0  0  0  0  0  0
   16.8215  137.9818   -7.8219 H   0  0  0  0  0  0  0  0  0  0  0  0
   17.7024  139.3556   -7.7661 H   0  0  0  0  0  0  0  0  0  0  0  0
   18.1401  138.1453   -8.7712 H   0  0  0  0  0  0  0  0  0  0  0  0
  1  2  1  0  0  0  0
  2  3  1  0  0  0  0
  3  4  2  0  0  0  0
  4  5  1  0  0  0  0
  5  6  2  0  0  0  0
  6  7  1  0  0  0  0
  7  8  1  0  0  0  0
  7  9  1  0  0  0  0
  9 10  2  0  0  0  0
 10 11  1  0  0  0  0
 11 12  2  0  0  0  0
 12 13  1  0  0  0  0
 12 14  1  0  0  0  0
 14 15  2  0  0  0  0
  7 16  1  0  0  0  0
 16 17  2  0  0  0  0
 17 18  1  0  0  0  0
 18 19  2  0  0  0  0
 19 20  1  0  0  0  0
 20 21  2  0  0  0  0
 20 22  1  0  0  0  0
 22 23  1  0  0  0  0
 23 24  2  0  0  0  0
 24 25  1  0  0  0  0
 25 26  2  0  0  0  0
 26 27  1  0  0  0  0
 27 28  1  0  0  0  0
 27 29  2  0  0  0  0
 22 30  2  0  0  0  0
 30 31  1  0  0  0  0
 31 32  2  0  0  0  0
 31 33  1  0  0  0  0
 33 34  1  0  0  0  0
  6  2  1  0  0  0  0
 15  9  1  0  0  0  0
 21 16  1  0  0  0  0
 29 23  1  0  0  0  0
 33 19  1  0  0  0  0
  1 35  1  0  0  0  0
  1 36  1  0  0  0  0
  1 37  1  0  0  0  0
  3 38  1  0  0  0  0
  5 39  1  0  0  0  0
  8 40  1  0  0  0  0
  8 41  1  0  0  0  0
  8 42  1  0  0  0  0
 10 43  1  0  0  0  0
 11 44  1  0  0  0  0
 14 45  1  0  0  0  0
 15 46  1  0  0  0  0
 17 47  1  0  0  0  0
 18 48  1  0  0  0  0
 21 49  1  0  0  0  0
 24 50  1  0  0  0  0
 25 51  1  0  0  0  0
 26 52  1  0  0  0  0
 29 53  1  0  0  0  0
 30 54  1  0  0  0  0
 34 55  1  0  0  0  0
 34 56  1  0  0  0  0
 34 57  1  0  0  0  0
M  CHG  1   8   1
M  END
> <BIOSOLVEIT.HYDE_ESTIMATED_AFFINITY_LOWER_BOUNDARY [nM]>
96564487.912515

> <BIOSOLVEIT.HYDE_ESTIMATED_AFFINITY_UPPER_BOUNDARY [nM]>
9594252808.545279

> <BIOSOLVEIT.HYDE_LIGAND_EFFICIENCY range: ++, +, 0, -, -->
--

> <BIOSOLVEIT.HYDE_LIGAND_LIPOPHILIC_EFFICIENCY range: ++, +, 0, -, -->
--

> <BIOSOLVEIT.INTER_CLASH range: red, yellow, green>
green

> <BIOSOLVEIT.INTRA_CLASH range: red, yellow, green>
green

> <BIOSOLVEIT.LOGP>
4.6688

> <BIOSOLVEIT.MOLECULAR WEIGHT>
490.412

> <BIOSOLVEIT.MOLECULE_CHECKSUM>
LTAuMDk0NjcxMzswLjAwMjc4NDQ1

> <BIOSOLVEIT.TORSION_QUALITY range: red, yellow, green, not rotatable>
green

> <BIOSOLVEIT.TPSA>
65.77

$$$$
1SA4_JAN_2
foHydescor03232113463D 1   1.00000     0.00000     0
Hydescorer 1.1.0 fol007
 57 61  0  0  0  0            999 V2000
   17.4674  139.3265   -2.3667 C   0  0  0  0  0  0  0  0  0  0  0  0
   16.3873  139.3425   -1.3693 N   0  0  0  0  0  0  0  0  0  0  0  0
   15.9199  140.4526   -0.7285 C   0  0  0  0  0  0  0  0  0  0  0  0
   14.9574  140.0722    0.0827 N   0  0  0  0  0  0  0  0  0  0  0  0
   14.7960  138.7198   -0.0267 C   0  0  0  0  0  0  0  0  0  0  0  0
   15.6947  138.2518   -0.9404 C   0  0  0  0  0  0  0  0  0  0  0  0
   15.8780  136.7896   -1.3938 C   0  0  2  0  0  0  0  0  0  0  0  0
   14.6664  136.0733   -0.9275 N   0  3  0  0  0  0  0  0  0  0  0  0
   17.1726  136.1918   -0.8077 C   0  0  0  0  0  0  0  0  0  0  0  0
   18.0924  137.0335   -0.1899 C   0  0  0  0  0  0  0  0  0  0  0  0
   19.2648  136.5098    0.3449 C   0  0  0  0  0  0  0  0  0  0  0  0
   19.5007  135.1426    0.2517 C   0  0  0  0  0  0  0  0  0  0  0  0
   20.9963  134.4566    0.9310 Cl  0  0  0  0  0  0  0  0  0  0  0  0
   18.5825  134.2999   -0.3650 C   0  0  0  0  0  0  0  0  0  0  0  0
   17.4103  134.8246   -0.8993 C   0  0  0  0  0  0  0  0  0  0  0  0
   16.0003  136.6751   -2.8992 C   0  0  0  0  0  0  0  0  0  0  0  0
   14.8646  136.7832   -3.6902 C   0  0  0  0  0  0  0  0  0  0  0  0
   15.0284  136.6720   -5.0644 C   0  0  0  0  0  0  0  0  0  0  0  0
   16.2824  136.4603   -5.6287 C   0  0  0  0  0  0  0  0  0  0  0  0
   17.3959  136.3572   -4.8067 C   0  0  0  0  0  0  0  0  0  0  0  0
   17.2650  136.4639   -3.4268 C   0  0  0  0  0  0  0  0  0  0  0  0
   18.7041  136.1292   -5.3968 C   0  0  0  0  0  0  0  0  0  0  0  0
   19.8950  136.0074   -4.5761 C   0  0  0  0  0  0  0  0  0  0  0  0
   20.6713  134.8568   -4.6663 C   0  0  0  0  0  0  0  0  0  0  0  0
   21.8111  134.7481   -3.8761 C   0  0  0  0  0  0  0  0  0  0  0  0
   22.1774  135.7692   -3.0057 C   0  0  0  0  0  0  0  0  0  0  0  0
   21.3861  136.9107   -2.9321 C   0  0  0  0  0  0  0  0  0  0  0  0
   21.8370  138.2283   -1.8236 Cl  0  0  0  0  0  0  0  0  0  0  0  0
   20.2418  137.0407   -3.7123 C   0  0  0  0  0  0  0  0  0  0  0  0
   18.8790  136.0184   -6.7011 C   0  0  0  0  0  0  0  0  0  0  0  0
   17.7277  136.1275   -7.5763 C   0  0  0  0  0  0  0  0  0  0  0  0
   17.8894  136.0260   -8.7818 O   0  0  0  0  0  0  0  0  0  0  0  0
   16.4630  136.3456   -7.0131 N   0  0  0  0  0  0  0  0  0  0  0  0
   15.3274  136.4448   -7.9453 C   0  0  0  0  0  0  0  0  0  0  0  0
   17.6165  138.3893   -2.6817 H   0  0  0  0  0  0  0  0  0  0  0  0
   17.2124  139.9026   -3.1434 H   0  0  0  0  0  0  0  0  0  0  0  0
   18.3079  139.6770   -1.9535 H   0  0  0  0  0  0  0  0  0  0  0  0
   16.2501  141.3882   -0.8533 H   0  0  0  0  0  0  0  0  0  0  0  0
   14.1322  138.1672    0.4771 H   0  0  0  0  0  0  0  0  0  0  0  0
   14.7143  135.1162   -1.2133 H   0  0  0  0  0  0  0  0  0  0  0  0
   14.6142  136.1210    0.0701 H   0  0  0  0  0  0  0  0  0  0  0  0
   13.8536  136.4995   -1.3246 H   0  0  0  0  0  0  0  0  0  0  0  0
   17.9105  138.0150   -0.1303 H   0  0  0  0  0  0  0  0  0  0  0  0
   19.9298  137.1090    0.7908 H   0  0  0  0  0  0  0  0  0  0  0  0
   18.7645  133.3184   -0.4243 H   0  0  0  0  0  0  0  0  0  0  0  0
   16.7455  134.2249   -1.3447 H   0  0  0  0  0  0  0  0  0  0  0  0
   13.9628  136.9353   -3.2856 H   0  0  0  0  0  0  0  0  0  0  0  0
   14.2290  136.7456   -5.6607 H   0  0  0  0  0  0  0  0  0  0  0  0
   18.0635  136.3900   -2.8294 H   0  0  0  0  0  0  0  0  0  0  0  0
   20.4140  134.1187   -5.2900 H   0  0  0  0  0  0  0  0  0  0  0  0
   22.3749  133.9242   -3.9347 H   0  0  0  0  0  0  0  0  0  0  0  0
   22.9981  135.6838   -2.4408 H   0  0  0  0  0  0  0  0  0  0  0  0
   19.6775  137.8642   -3.6530 H   0  0  0  0  0  0  0  0  0  0  0  0
   19.7914  135.8617   -7.0795 H   0  0  0  0  0  0  0  0  0  0  0  0
   14.4850  136.5995   -7.4292 H   0  0  0  0  0  0  0  0  0  0  0  0
   15.4780  137.2076   -8.5741 H   0  0  0  0  0  0  0  0  0  0  0  0
   15.2481  135.5945   -8.4657 H   0  0  0  0  0  0  0  0  0  0  0  0
  1  2  1  0  0  0  0
  2  3  1  0  0  0  0
  3  4  2  0  0  0  0
  4  5  1  0  0  0  0
  5  6  2  0  0  0  0
  6  7  1  0  0  0  0
  7  8  1  0  0  0  0
  7  9  1  0  0  0  0
  9 10  2  0  0  0  0
 10 11  1  0  0  0  0
 11 12  2  0  0  0  0
 12 13  1  0  0  0  0
 12 14  1  0  0  0  0
 14 15  2  0  0  0  0
  7 16  1  0  0  0  0
 16 17  2  0  0  0  0
 17 18  1  0  0  0  0
 18 19  2  0  0  0  0
 19 20  1  0  0  0  0
 20 21  2  0  0  0  0
 20 22  1  0  0  0  0
 22 23  1  0  0  0  0
 23 24  2  0  0  0  0
 24 25  1  0  0  0  0
 25 26  2  0  0  0  0
 26 27  1  0  0  0  0
 27 28  1  0  0  0  0
 27 29  2  0  0  0  0
 22 30  2  0  0  0  0
 30 31  1  0  0  0  0
 31 32  2  0  0  0  0
 31 33  1  0  0  0  0
 33 34  1  0  0  0  0
  6  2  1  0  0  0  0
 15  9  1  0  0  0  0
 21 16  1  0  0  0  0
 29 23  1  0  0  0  0
 33 19  1  0  0  0  0
  1 35  1  0  0  0  0
  1 36  1  0  0  0  0
  1 37  1  0  0  0  0
  3 38  1  0  0  0  0
  5 39  1  0  0  0  0
  8 40  1  0  0  0  0
  8 41  1  0  0  0  0
  8 42  1  0  0  0  0
 10 43  1  0  0  0  0
 11 44  1  0  0  0  0
 14 45  1  0  0  0  0
 15 46  1  0  0  0  0
 17 47  1  0  0  0  0
 18 48  1  0  0  0  0
 21 49  1  0  0  0  0
 24 50  1  0  0  0  0
 25 51  1  0  0  0  0
 26 52  1  0  0  0  0
 29 53  1  0  0  0  0
 30 54  1  0  0  0  0
 34 55  1  0  0  0  0
 34 56  1  0  0  0  0
 34 57  1  0  0  0  0
M  CHG  1   8   1
M  END
> <BIOSOLVEIT.HYDE_ESTIMATED_AFFINITY_LOWER_BOUNDARY [nM]>
25023600.515131

> <BIOSOLVEIT.HYDE_ESTIMATED_AFFINITY_UPPER_BOUNDARY [nM]>
2486242662.413530

> <BIOSOLVEIT.HYDE_LIGAND_EFFICIENCY range: ++, +, 0, -, -->
--

> <BIOSOLVEIT.HYDE_LIGAND_LIPOPHILIC_EFFICIENCY range: ++, +, 0, -, -->
--

> <BIOSOLVEIT.INTER_CLASH range: red, yellow, green>
green

> <BIOSOLVEIT.INTRA_CLASH range: red, yellow, green>
yellow

> <BIOSOLVEIT.LOGP>
4.6688

> <BIOSOLVEIT.MOLECULAR WEIGHT>
490.412

> <BIOSOLVEIT.MOLECULE_CHECKSUM>
LTMuNDQyMjM7MC4xMDEyNDI=

> <BIOSOLVEIT.TORSION_QUALITY range: red, yellow, green, not rotatable>
yellow

> <BIOSOLVEIT.TPSA>
65.77

$$$$
1SA4_JAN_3
foHydescor03232113463D 1   1.00000     0.00000     0
Hydescorer 1.1.0 fol007
 58 62  0  0  0  0            999 V2000
   17.0988  137.5235   -5.1346 C   0  0  0  0  0  0  0  0  0  0  0  0
   18.2393  138.0647   -5.8886 N   0  0  0  0  0  0  0  0  0  0  0  0
   18.2706  138.2663   -7.2375 C   0  0  0  0  0  0  0  0  0  0  0  0
   19.4500  138.7614   -7.5420 N   0  3  0  0  0  0  0  0  0  0  0  0
   20.1869  138.8830   -6.3980 C   0  0  0  0  0  0  0  0  0  0  0  0
   19.4304  138.4450   -5.3503 C   0  0  0  0  0  0  0  0  0  0  0  0
   19.8431  138.3994   -3.8655 C   0  0  2  0  0  0  0  0  0  0  0  0
   20.9431  139.3839   -3.7276 N   0  3  0  0  0  0  0  0  0  0  0  0
   20.2713  136.9967   -3.4659 C   0  0  0  0  0  0  0  0  0  0  0  0
   19.8921  135.9174   -4.2582 C   0  0  0  0  0  0  0  0  0  0  0  0
   20.2766  134.6276   -3.9070 C   0  0  0  0  0  0  0  0  0  0  0  0
   21.0392  134.4364   -2.7601 C   0  0  0  0  0  0  0  0  0  0  0  0
   21.5393  132.7920   -2.2967 Cl  0  0  0  0  0  0  0  0  0  0  0  0
   21.4193  135.5138   -1.9673 C   0  0  0  0  0  0  0  0  0  0  0  0
   21.0344  136.8031   -2.3195 C   0  0  0  0  0  0  0  0  0  0  0  0
   18.6674  138.7812   -2.9245 C   0  0  0  0  0  0  0  0  0  0  0  0
   18.3404  140.1178   -2.7423 C   0  0  0  0  0  0  0  0  0  0  0  0
   17.2815  140.4080   -1.8922 C   0  0  0  0  0  0  0  0  0  0  0  0
   16.5745  139.3985   -1.2468 C   0  0  0  0  0  0  0  0  0  0  0  0
   16.9297  138.0728   -1.4528 C   0  0  0  0  0  0  0  0  0  0  0  0
   17.9853  137.7495   -2.2977 C   0  0  0  0  0  0  0  0  0  0  0  0
   16.1948  137.0196   -0.7727 C   0  0  0  0  0  0  0  0  0  0  0  0
   16.5356  135.6202   -0.9519 C   0  0  0  0  0  0  0  0  0  0  0  0
   17.4835  135.0365   -0.1182 C   0  0  0  0  0  0  0  0  0  0  0  0
   17.8044  133.6945   -0.2968 C   0  0  0  0  0  0  0  0  0  0  0  0
   17.1920  132.9395   -1.2914 C   0  0  0  0  0  0  0  0  0  0  0  0
   16.2469  133.5443   -2.1136 C   0  0  0  0  0  0  0  0  0  0  0  0
   15.4527  132.5956   -3.3932 Cl  0  0  0  0  0  0  0  0  0  0  0  0
   15.9111  134.8847   -1.9535 C   0  0  0  0  0  0  0  0  0  0  0  0
   15.1868  137.2763    0.0411 C   0  0  0  0  0  0  0  0  0  0  0  0
   14.7984  138.6556    0.2652 C   0  0  0  0  0  0  0  0  0  0  0  0
   13.8664  138.8929    1.0167 O   0  0  0  0  0  0  0  0  0  0  0  0
   15.5045  139.6759   -0.3862 N   0  0  0  0  0  0  0  0  0  0  0  0
   15.0725  141.0585   -0.1211 C   0  0  0  0  0  0  0  0  0  0  0  0
   17.3333  137.4764   -4.1636 H   0  0  0  0  0  0  0  0  0  0  0  0
   16.3051  138.1194   -5.2574 H   0  0  0  0  0  0  0  0  0  0  0  0
   16.8823  136.6066   -5.4701 H   0  0  0  0  0  0  0  0  0  0  0  0
   17.5292  138.0723   -7.8799 H   0  0  0  0  0  0  0  0  0  0  0  0
   21.1216  139.2334   -6.3385 H   0  0  0  0  0  0  0  0  0  0  0  0
   21.1277  139.5439   -2.7579 H   0  0  0  0  0  0  0  0  0  0  0  0
   21.7665  139.0277   -4.1693 H   0  0  0  0  0  0  0  0  0  0  0  0
   20.6771  140.2441   -4.1626 H   0  0  0  0  0  0  0  0  0  0  0  0
   19.3431  136.0691   -5.0801 H   0  0  0  0  0  0  0  0  0  0  0  0
   20.0080  133.8476   -4.4722 H   0  0  0  0  0  0  0  0  0  0  0  0
   21.9684  135.3619   -1.1455 H   0  0  0  0  0  0  0  0  0  0  0  0
   21.3035  137.5829   -1.7542 H   0  0  0  0  0  0  0  0  0  0  0  0
   18.8481  140.8442   -3.2056 H   0  0  0  0  0  0  0  0  0  0  0  0
   17.0219  141.3618   -1.7409 H   0  0  0  0  0  0  0  0  0  0  0  0
   18.2463  136.7962   -2.4497 H   0  0  0  0  0  0  0  0  0  0  0  0
   17.9278  135.5734    0.5990 H   0  0  0  0  0  0  0  0  0  0  0  0
   18.4849  133.2669    0.2983 H   0  0  0  0  0  0  0  0  0  0  0  0
   17.4278  131.9754   -1.4138 H   0  0  0  0  0  0  0  0  0  0  0  0
   15.2314  135.3127   -2.5493 H   0  0  0  0  0  0  0  0  0  0  0  0
   14.6988  136.5312    0.4957 H   0  0  0  0  0  0  0  0  0  0  0  0
   15.6474  141.6925   -0.6384 H   0  0  0  0  0  0  0  0  0  0  0  0
   14.1188  141.1693   -0.4009 H   0  0  0  0  0  0  0  0  0  0  0  0
   15.1578  141.2529    0.8561 H   0  0  0  0  0  0  0  0  0  0  0  0
   19.7575  139.0085   -8.4609 H   0  0  0  0  0  0  0  0  0  0  0  0
  1  2  1  0  0  0  0
  2  3  1  0  0  0  0
  3  4  2  0  0  0  0
  4  5  1  0  0  0  0
  5  6  2  0  0  0  0
  6  7  1  0  0  0  0
  7  8  1  0  0  0  0
  7  9  1  0  0  0  0
  9 10  2  0  0  0  0
 10 11  1  0  0  0  0
 11 12  2  0  0  0  0
 12 13  1  0  0  0  0
 12 14  1  0  0  0  0
 14 15  2  0  0  0  0
  7 16  1  0  0  0  0
 16 17  2  0  0  0  0
 17 18  1  0  0  0  0
 18 19  2  0  0  0  0
 19 20  1  0  0  0  0
 20 21  2  0  0  0  0
 20 22  1  0  0  0  0
 22 23  1  0  0  0  0
 23 24  2  0  0  0  0
 24 25  1  0  0  0  0
 25 26  2  0  0  0  0
 26 27  1  0  0  0  0
 27 28  1  0  0  0  0
 27 29  2  0  0  0  0
 22 30  2  0  0  0  0
 30 31  1  0  0  0  0
 31 32  2  0  0  0  0
 31 33  1  0  0  0  0
 33 34  1  0  0  0  0
  6  2  1  0  0  0  0
 15  9  1  0  0  0  0
 21 16  1  0  0  0  0
 29 23  1  0  0  0  0
 33 19  1  0  0  0  0
  1 35  1  0  0  0  0
  1 36  1  0  0  0  0
  1 37  1  0  0  0  0
  3 38  1  0  0  0  0
  5 39  1  0  0  0  0
  8 40  1  0  0  0  0
  8 41  1  0  0  0  0
  8 42  1  0  0  0  0
 10 43  1  0  0  0  0
 11 44  1  0  0  0  0
 14 45  1  0  0  0  0
 15 46  1  0  0  0  0
 17 47  1  0  0  0  0
 18 48  1  0  0  0  0
 21 49  1  0  0  0  0
 24 50  1  0  0  0  0
 25 51  1  0  0  0  0
 26 52  1  0  0  0  0
 29 53  1  0  0  0  0
 30 54  1  0  0  0  0
 34 55  1  0  0  0  0
 34 56  1  0  0  0  0
 34 57  1  0  0  0  0
  4 58  1  0  0  0  0
M  CHG  2   4   1   8   1
M  END
> <BIOSOLVEIT.HYDE_ESTIMATED_AFFINITY_LOWER_BOUNDARY [nM]>
32294.843497

> <BIOSOLVEIT.HYDE_ESTIMATED_AFFINITY_UPPER_BOUNDARY [nM]>
3208683.643612

> <BIOSOLVEIT.HYDE_LIGAND_EFFICIENCY range: ++, +, 0, -, -->
--

> <BIOSOLVEIT.HYDE_LIGAND_LIPOPHILIC_EFFICIENCY range: ++, +, 0, -, -->
--

> <BIOSOLVEIT.INTER_CLASH range: red, yellow, green>
green

> <BIOSOLVEIT.INTRA_CLASH range: red, yellow, green>
yellow

> <BIOSOLVEIT.LOGP>
4.0879

> <BIOSOLVEIT.MOLECULAR WEIGHT>
491.42

> <BIOSOLVEIT.MOLECULE_CHECKSUM>
LTE5LjkzMzk7MC41ODYyOTE=

> <BIOSOLVEIT.TORSION_QUALITY range: red, yellow, green, not rotatable>
yellow

> <BIOSOLVEIT.TPSA>
67.02

$$$$
1MZC_BNE_1
foHydescor03232113463D 1   1.00000     0.00000     0
Hydescorer 1.1.0 fol007
 69 72  0  0  0  0            999 V2000
   17.2214  133.5410   -5.9855 C   0  0  0  0  0  0  0  0  0  0  0  0
   17.4827  134.4935   -7.1618 C   0  0  0  0  0  0  0  0  0  0  0  0
   16.8064  135.8509   -7.0448 C   0  0  2  0  0  0  0  0  0  0  0  0
   17.7357  136.7622   -6.2610 C   0  0  0  0  0  0  0  0  0  0  0  0
   18.7592  137.4399   -6.9155 C   0  0  0  0  0  0  0  0  0  0  0  0
   19.5981  138.2689   -6.1778 C   0  0  0  0  0  0  0  0  0  0  0  0
   19.4262  138.4253   -4.8065 C   0  0  0  0  0  0  0  0  0  0  0  0
   18.3966  137.7382   -4.1718 C   0  0  0  0  0  0  0  0  0  0  0  0
   18.2164  137.8901   -2.7886 O   0  0  0  0  0  0  0  0  0  0  0  0
   18.2671  136.8813   -1.8929 C   0  0  0  0  0  0  0  0  0  0  0  0
   19.4254  136.1152   -1.8153 C   0  0  0  0  0  0  0  0  0  0  0  0
   19.4847  135.0739   -0.8949 C   0  0  0  0  0  0  0  0  0  0  0  0
   20.7670  134.2156   -0.8001 C   0  0  2  0  0  0  0  0  0  0  0  0
   20.4734  132.7519   -0.3944 C   0  0  0  0  0  0  0  0  0  0  0  0
   21.6450  134.8267    0.2206 N   0  3  0  0  0  0  0  0  0  0  0  0
   21.4365  134.1728   -2.1649 C   0  0  0  0  0  0  0  0  0  0  0  0
   22.6920  134.6216   -2.4528 C   0  0  0  0  0  0  0  0  0  0  0  0
   22.9001  134.3948   -3.7809 N   0  0  0  0  0  0  0  0  0  0  0  0
   21.8225  133.8330   -4.2856 C   0  0  0  0  0  0  0  0  0  0  0  0
   20.8923  133.6735   -3.3060 N   0  0  0  0  0  0  0  0  0  0  0  0
   19.5530  133.0840   -3.4521 C   0  0  0  0  0  0  0  0  0  0  0  0
   18.4080  134.7937   -0.0597 C   0  0  0  0  0  0  0  0  0  0  0  0
   17.2548  135.5666   -0.1461 C   0  0  0  0  0  0  0  0  0  0  0  0
   17.1844  136.6107   -1.0627 C   0  0  0  0  0  0  0  0  0  0  0  0
   15.9242  137.4554   -1.1571 C   0  0  0  0  0  0  0  0  0  0  0  0
   14.9652  138.0993   -1.2293 N   0  0  0  0  0  0  0  0  0  0  0  0
   17.5461  136.9044   -4.8901 C   0  0  0  0  0  0  0  0  0  0  0  0
   15.5279  135.7494   -6.2221 C   0  0  0  0  0  0  0  0  0  0  0  0
   14.3009  135.2947   -7.0057 C   0  0  0  0  0  0  0  0  0  0  0  0
   13.5673  136.4817   -7.6087 C   0  0  0  0  0  0  0  0  0  0  0  0
   14.5726  137.6097   -7.7776 C   0  0  0  0  0  0  0  0  0  0  0  0
   15.5732  137.2767   -8.8035 N   0  0  0  0  0  0  0  0  0  0  0  0
   15.4338  137.8195  -10.1644 C   0  0  0  0  0  0  0  0  0  0  0  0
   16.6416  136.4397   -8.4420 C   0  0  0  0  0  0  0  0  0  0  0  0
   17.4710  136.1714   -9.2924 O   0  0  0  0  0  0  0  0  0  0  0  0
   17.7003  132.6775   -6.1431 H   0  0  0  0  0  0  0  0  0  0  0  0
   17.5542  133.9572   -5.1394 H   0  0  0  0  0  0  0  0  0  0  0  0
   16.2394  133.3684   -5.9083 H   0  0  0  0  0  0  0  0  0  0  0  0
   17.1545  134.0533   -7.9976 H   0  0  0  0  0  0  0  0  0  0  0  0
   18.4694  134.6422   -7.2287 H   0  0  0  0  0  0  0  0  0  0  0  0
   18.8898  137.3329   -7.9012 H   0  0  0  0  0  0  0  0  0  0  0  0
   20.3362  138.7599   -6.6406 H   0  0  0  0  0  0  0  0  0  0  0  0
   20.0341  139.0234   -4.2842 H   0  0  0  0  0  0  0  0  0  0  0  0
   20.2037  136.3100   -2.4122 H   0  0  0  0  0  0  0  0  0  0  0  0
   21.3315  132.2406   -0.3472 H   0  0  0  0  0  0  0  0  0  0  0  0
   20.0269  132.7372    0.5002 H   0  0  0  0  0  0  0  0  0  0  0  0
   19.8721  132.3319   -1.0741 H   0  0  0  0  0  0  0  0  0  0  0  0
   22.4690  134.2705    0.3277 H   0  0  0  0  0  0  0  0  0  0  0  0
   21.9007  135.7492   -0.0688 H   0  0  0  0  0  0  0  0  0  0  0  0
   21.1590  134.8739    1.0933 H   0  0  0  0  0  0  0  0  0  0  0  0
   23.3369  135.0378   -1.8118 H   0  0  0  0  0  0  0  0  0  0  0  0
   21.7055  133.5647   -5.2418 H   0  0  0  0  0  0  0  0  0  0  0  0
   19.0859  133.0946   -2.5680 H   0  0  0  0  0  0  0  0  0  0  0  0
   19.0252  133.6159   -4.1143 H   0  0  0  0  0  0  0  0  0  0  0  0
   19.6373  132.1408   -3.7734 H   0  0  0  0  0  0  0  0  0  0  0  0
   18.4628  134.0424    0.5980 H   0  0  0  0  0  0  0  0  0  0  0  0
   16.4764  135.3717    0.4506 H   0  0  0  0  0  0  0  0  0  0  0  0
   16.8079  136.4136   -4.4272 H   0  0  0  0  0  0  0  0  0  0  0  0
   15.3340  136.6508   -5.8350 H   0  0  0  0  0  0  0  0  0  0  0  0
   15.6848  135.0955   -5.4818 H   0  0  0  0  0  0  0  0  0  0  0  0
   13.6822  134.8067   -6.3900 H   0  0  0  0  0  0  0  0  0  0  0  0
   14.5912  134.6821   -7.7409 H   0  0  0  0  0  0  0  0  0  0  0  0
   12.8295  136.7715   -6.9991 H   0  0  0  0  0  0  0  0  0  0  0  0
   13.1854  136.2299   -8.4980 H   0  0  0  0  0  0  0  0  0  0  0  0
   15.0376  137.7661   -6.9062 H   0  0  0  0  0  0  0  0  0  0  0  0
   14.0883  138.4408   -8.0509 H   0  0  0  0  0  0  0  0  0  0  0  0
   16.1922  137.4974  -10.7311 H   0  0  0  0  0  0  0  0  0  0  0  0
   14.5683  137.5111  -10.5593 H   0  0  0  0  0  0  0  0  0  0  0  0
   15.4461  138.8187  -10.1276 H   0  0  0  0  0  0  0  0  0  0  0  0
  1  2  1  0  0  0  0
  2  3  1  0  0  0  0
  3  4  1  0  0  0  0
  4  5  2  0  0  0  0
  5  6  1  0  0  0  0
  6  7  2  0  0  0  0
  7  8  1  0  0  0  0
  8  9  1  0  0  0  0
  9 10  1  0  0  0  0
 10 11  2  0  0  0  0
 11 12  1  0  0  0  0
 12 13  1  0  0  0  0
 13 14  1  0  0  0  0
 13 15  1  0  0  0  0
 13 16  1  0  0  0  0
 16 17  2  0  0  0  0
 17 18  1  0  0  0  0
 18 19  2  0  0  0  0
 19 20  1  0  0  0  0
 20 21  1  0  0  0  0
 12 22  2  0  0  0  0
 22 23  1  0  0  0  0
 23 24  2  0  0  0  0
 24 25  1  0  0  0  0
 25 26  3  0  0  0  0
  8 27  2  0  0  0  0
  3 28  1  0  0  0  0
 28 29  1  0  0  0  0
 29 30  1  0  0  0  0
 30 31  1  0  0  0  0
 31 32  1  0  0  0  0
 32 33  1  0  0  0  0
 32 34  1  0  0  0  0
 34 35  2  0  0  0  0
 34  3  1  0  0  0  0
 27  4  1  0  0  0  0
 24 10  1  0  0  0  0
 20 16  1  0  0  0  0
  1 36  1  0  0  0  0
  1 37  1  0  0  0  0
  1 38  1  0  0  0  0
  2 39  1  0  0  0  0
  2 40  1  0  0  0  0
  5 41  1  0  0  0  0
  6 42  1  0  0  0  0
  7 43  1  0  0  0  0
 11 44  1  0  0  0  0
 14 45  1  0  0  0  0
 14 46  1  0  0  0  0
 14 47  1  0  0  0  0
 15 48  1  0  0  0  0
 15 49  1  0  0  0  0
 15 50  1  0  0  0  0
 17 51  1  0  0  0  0
 19 52  1  0  0  0  0
 21 53  1  0  0  0  0
 21 54  1  0  0  0  0
 21 55  1  0  0  0  0
 22 56  1  0  0  0  0
 23 57  1  0  0  0  0
 27 58  1  0  0  0  0
 28 59  1  0  0  0  0
 28 60  1  0  0  0  0
 29 61  1  0  0  0  0
 29 62  1  0  0  0  0
 30 63  1  0  0  0  0
 30 64  1  0  0  0  0
 31 65  1  0  0  0  0
 31 66  1  0  0  0  0
 33 67  1  0  0  0  0
 33 68  1  0  0  0  0
 33 69  1  0  0  0  0
M  CHG  1  15   1
M  END
> <BIOSOLVEIT.HYDE_ESTIMATED_AFFINITY_LOWER_BOUNDARY [nM]>
295653381.805248

> <BIOSOLVEIT.HYDE_ESTIMATED_AFFINITY_UPPER_BOUNDARY [nM]>
29374911523.486622

> <BIOSOLVEIT.HYDE_LIGAND_EFFICIENCY range: ++, +, 0, -, -->
--

> <BIOSOLVEIT.HYDE_LIGAND_LIPOPHILIC_EFFICIENCY range: ++, +, 0, -, -->
--

> <BIOSOLVEIT.INTER_CLASH range: red, yellow, green>
green

> <BIOSOLVEIT.INTRA_CLASH range: red, yellow, green>
green

> <BIOSOLVEIT.LOGP>
3.87958

> <BIOSOLVEIT.MOLECULAR WEIGHT>
472.61

> <BIOSOLVEIT.MOLECULE_CHECKSUM>
Mi42NzkyMjsw

> <BIOSOLVEIT.TORSION_QUALITY range: red, yellow, green, not rotatable>
green

> <BIOSOLVEIT.TPSA>
98.79

$$$$
1MZC_BNE_2
foHydescor03232113463D 1   1.00000     0.00000     0
Hydescorer 1.1.0 fol007
 69 72  0  0  0  0            999 V2000
   14.6400  136.6073  -10.2278 C   0  0  0  0  0  0  0  0  0  0  0  0
   15.1618  135.4808   -9.3234 C   0  0  0  0  0  0  0  0  0  0  0  0
   15.6541  135.9362   -7.9588 C   0  0  2  0  0  0  0  0  0  0  0  0
   15.8346  134.6764   -7.1221 C   0  0  0  0  0  0  0  0  0  0  0  0
   15.0837  133.5403   -7.4059 C   0  0  0  0  0  0  0  0  0  0  0  0
   15.2651  132.4010   -6.6284 C   0  0  0  0  0  0  0  0  0  0  0  0
   16.1799  132.3864   -5.5807 C   0  0  0  0  0  0  0  0  0  0  0  0
   16.9202  133.5335   -5.3140 C   0  0  0  0  0  0  0  0  0  0  0  0
   17.8104  133.5276   -4.2983 O   0  0  0  0  0  0  0  0  0  0  0  0
   18.0548  134.6142   -3.4470 C   0  0  0  0  0  0  0  0  0  0  0  0
   19.2716  135.2804   -3.5476 C   0  0  0  0  0  0  0  0  0  0  0  0
   19.5213  136.3592   -2.7058 C   0  0  0  0  0  0  0  0  0  0  0  0
   20.8481  137.0946   -2.8069 C   0  0  2  0  0  0  0  0  0  0  0  0
   21.0329  138.1437   -1.6849 C   0  0  0  0  0  0  0  0  0  0  0  0
   20.8843  137.7833   -4.1146 N   0  3  0  0  0  0  0  0  0  0  0  0
   21.9949  136.0803   -2.6666 C   0  0  0  0  0  0  0  0  0  0  0  0
   22.7942  135.6342   -3.6778 C   0  0  0  0  0  0  0  0  0  0  0  0
   23.6768  134.7529   -3.1271 N   0  0  0  0  0  0  0  0  0  0  0  0
   23.4308  134.6615   -1.8377 C   0  0  0  0  0  0  0  0  0  0  0  0
   22.3935  135.4799   -1.5142 N   0  0  0  0  0  0  0  0  0  0  0  0
   21.8084  135.6726   -0.1789 C   0  0  0  0  0  0  0  0  0  0  0  0
   18.5758  136.7745   -1.7736 C   0  0  0  0  0  0  0  0  0  0  0  0
   17.3625  136.1008   -1.6820 C   0  0  0  0  0  0  0  0  0  0  0  0
   17.1017  135.0206   -2.5189 C   0  0  0  0  0  0  0  0  0  0  0  0
   15.7756  134.2843   -2.4189 C   0  0  0  0  0  0  0  0  0  0  0  0
   14.7661  133.7235   -2.3437 N   0  0  0  0  0  0  0  0  0  0  0  0
   16.7550  134.6834   -6.0789 C   0  0  0  0  0  0  0  0  0  0  0  0
   14.5246  136.8184   -7.4135 C   0  0  0  0  0  0  0  0  0  0  0  0
   14.6199  137.3673   -5.9853 C   0  0  0  0  0  0  0  0  0  0  0  0
   15.9848  137.4286   -5.2930 C   0  0  0  0  0  0  0  0  0  0  0  0
   17.1425  138.1030   -6.0326 C   0  0  0  0  0  0  0  0  0  0  0  0
   17.6776  137.5265   -7.2900 N   0  0  0  0  0  0  0  0  0  0  0  0
   19.0141  137.9809   -7.7030 C   0  0  0  0  0  0  0  0  0  0  0  0
   17.0416  136.5765   -8.1345 C   0  0  0  0  0  0  0  0  0  0  0  0
   17.6776  136.2278   -9.1190 O   0  0  0  0  0  0  0  0  0  0  0  0
   14.3383  136.2219  -11.0998 H   0  0  0  0  0  0  0  0  0  0  0  0
   13.8706  137.0639   -9.7812 H   0  0  0  0  0  0  0  0  0  0  0  0
   15.3714  137.2694  -10.3912 H   0  0  0  0  0  0  0  0  0  0  0  0
   15.9207  135.0304   -9.7937 H   0  0  0  0  0  0  0  0  0  0  0  0
   14.4199  134.8250   -9.1836 H   0  0  0  0  0  0  0  0  0  0  0  0
   14.4238  133.5425   -8.1572 H   0  0  0  0  0  0  0  0  0  0  0  0
   14.7295  131.5799   -6.8258 H   0  0  0  0  0  0  0  0  0  0  0  0
   16.3037  131.5630   -5.0270 H   0  0  0  0  0  0  0  0  0  0  0  0
   19.9567  134.9882   -4.2150 H   0  0  0  0  0  0  0  0  0  0  0  0
   21.9170  138.5977   -1.7954 H   0  0  0  0  0  0  0  0  0  0  0  0
   20.3005  138.8224   -1.7393 H   0  0  0  0  0  0  0  0  0  0  0  0
   21.0006  137.6891   -0.7948 H   0  0  0  0  0  0  0  0  0  0  0  0
   21.6743  138.3954   -4.1472 H   0  0  0  0  0  0  0  0  0  0  0  0
   20.9574  137.1055   -4.8463 H   0  0  0  0  0  0  0  0  0  0  0  0
   20.0457  138.3145   -4.2349 H   0  0  0  0  0  0  0  0  0  0  0  0
   22.7427  135.9023   -4.6398 H   0  0  0  0  0  0  0  0  0  0  0  0
   23.9295  134.0802   -1.1948 H   0  0  0  0  0  0  0  0  0  0  0  0
   21.0586  136.3318   -0.2356 H   0  0  0  0  0  0  0  0  0  0  0  0
   21.4594  134.7993    0.1613 H   0  0  0  0  0  0  0  0  0  0  0  0
   22.5091  136.0175    0.4455 H   0  0  0  0  0  0  0  0  0  0  0  0
   18.7671  137.5515   -1.1739 H   0  0  0  0  0  0  0  0  0  0  0  0
   16.6775  136.3930   -1.0147 H   0  0  0  0  0  0  0  0  0  0  0  0
   17.2907  135.5043   -5.8815 H   0  0  0  0  0  0  0  0  0  0  0  0
   13.6841  136.2787   -7.4624 H   0  0  0  0  0  0  0  0  0  0  0  0
   14.4505  137.6069   -8.0240 H   0  0  0  0  0  0  0  0  0  0  0  0
   14.0290  136.7976   -5.4142 H   0  0  0  0  0  0  0  0  0  0  0  0
   14.2624  138.3009   -6.0076 H   0  0  0  0  0  0  0  0  0  0  0  0
   16.2631  136.4872   -5.1028 H   0  0  0  0  0  0  0  0  0  0  0  0
   15.8580  137.9193   -4.4310 H   0  0  0  0  0  0  0  0  0  0  0  0
   17.9070  138.1438   -5.3892 H   0  0  0  0  0  0  0  0  0  0  0  0
   16.8402  139.0310   -6.2502 H   0  0  0  0  0  0  0  0  0  0  0  0
   19.2704  137.5294   -8.5576 H   0  0  0  0  0  0  0  0  0  0  0  0
   19.0018  138.9715   -7.8399 H   0  0  0  0  0  0  0  0  0  0  0  0
   19.6788  137.7509   -6.9922 H   0  0  0  0  0  0  0  0  0  0  0  0
  1  2  1  0  0  0  0
  2  3  1  0  0  0  0
  3  4  1  0  0  0  0
  4  5  2  0  0  0  0
  5  6  1  0  0  0  0
  6  7  2  0  0  0  0
  7  8  1  0  0  0  0
  8  9  1  0  0  0  0
  9 10  1  0  0  0  0
 10 11  2  0  0  0  0
 11 12  1  0  0  0  0
 12 13  1  0  0  0  0
 13 14  1  0  0  0  0
 13 15  1  0  0  0  0
 13 16  1  0  0  0  0
 16 17  2  0  0  0  0
 17 18  1  0  0  0  0
 18 19  2  0  0  0  0
 19 20  1  0  0  0  0
 20 21  1  0  0  0  0
 12 22  2  0  0  0  0
 22 23  1  0  0  0  0
 23 24  2  0  0  0  0
 24 25  1  0  0  0  0
 25 26  3  0  0  0  0
  8 27  2  0  0  0  0
  3 28  1  0  0  0  0
 28 29  1  0  0  0  0
 29 30  1  0  0  0  0
 30 31  1  0  0  0  0
 31 32  1  0  0  0  0
 32 33  1  0  0  0  0
 32 34  1  0  0  0  0
 34 35  2  0  0  0  0
 34  3  1  0  0  0  0
 27  4  1  0  0  0  0
 24 10  1  0  0  0  0
 20 16  1  0  0  0  0
  1 36  1  0  0  0  0
  1 37  1  0  0  0  0
  1 38  1  0  0  0  0
  2 39  1  0  0  0  0
  2 40  1  0  0  0  0
  5 41  1  0  0  0  0
  6 42  1  0  0  0  0
  7 43  1  0  0  0  0
 11 44  1  0  0  0  0
 14 45  1  0  0  0  0
 14 46  1  0  0  0  0
 14 47  1  0  0  0  0
 15 48  1  0  0  0  0
 15 49  1  0  0  0  0
 15 50  1  0  0  0  0
 17 51  1  0  0  0  0
 19 52  1  0  0  0  0
 21 53  1  0  0  0  0
 21 54  1  0  0  0  0
 21 55  1  0  0  0  0
 22 56  1  0  0  0  0
 23 57  1  0  0  0  0
 27 58  1  0  0  0  0
 28 59  1  0  0  0  0
 28 60  1  0  0  0  0
 29 61  1  0  0  0  0
 29 62  1  0  0  0  0
 30 63  1  0  0  0  0
 30 64  1  0  0  0  0
 31 65  1  0  0  0  0
 31 66  1  0  0  0  0
 33 67  1  0  0  0  0
 33 68  1  0  0  0  0
 33 69  1  0  0  0  0
M  CHG  1  15   1
M  END
> <BIOSOLVEIT.HYDE_ESTIMATED_AFFINITY_LOWER_BOUNDARY [nM]>
1659083618.375255

> <BIOSOLVEIT.HYDE_ESTIMATED_AFFINITY_UPPER_BOUNDARY [nM]>
164839766764.251221

> <BIOSOLVEIT.HYDE_LIGAND_EFFICIENCY range: ++, +, 0, -, -->
--

> <BIOSOLVEIT.HYDE_LIGAND_LIPOPHILIC_EFFICIENCY range: ++, +, 0, -, -->
--

> <BIOSOLVEIT.INTER_CLASH range: red, yellow, green>
green

> <BIOSOLVEIT.INTRA_CLASH range: red, yellow, green>
yellow

> <BIOSOLVEIT.LOGP>
3.87958

> <BIOSOLVEIT.MOLECULAR WEIGHT>
472.61

> <BIOSOLVEIT.MOLECULE_CHECKSUM>
Ni45NTUwMTsw

> <BIOSOLVEIT.TORSION_QUALITY range: red, yellow, green, not rotatable>
green

> <BIOSOLVEIT.TPSA>
98.79

$$$$
1MZC_BNE_3
foHydescor03232113463D 1   1.00000     0.00000     0
Hydescorer 1.1.0 fol007
 68 71  0  0  0  0            999 V2000
   15.6262  137.8925   -9.4103 C   0  0  0  0  0  0  0  0  0  0  0  0
   15.4763  136.5116   -8.7547 C   0  0  0  0  0  0  0  0  0  0  0  0
   16.1535  136.3729   -7.3997 C   0  0  2  0  0  0  0  0  0  0  0  0
   15.9802  134.9319   -6.9431 C   0  0  0  0  0  0  0  0  0  0  0  0
   14.7713  134.2767   -7.1541 C   0  0  0  0  0  0  0  0  0  0  0  0
   14.6353  132.9594   -6.7282 C   0  0  0  0  0  0  0  0  0  0  0  0
   15.6849  132.2973   -6.0998 C   0  0  0  0  0  0  0  0  0  0  0  0
   16.8852  132.9712   -5.8986 C   0  0  0  0  0  0  0  0  0  0  0  0
   17.9089  132.3356   -5.2889 O   0  0  0  0  0  0  0  0  0  0  0  0
   18.3443  132.5973   -3.9823 C   0  0  0  0  0  0  0  0  0  0  0  0
   19.5764  133.2166   -3.8008 C   0  0  0  0  0  0  0  0  0  0  0  0
   20.0151  133.4792   -2.5073 C   0  0  0  0  0  0  0  0  0  0  0  0
   21.3603  134.1554   -2.2970 C   0  0  2  0  0  0  0  0  0  0  0  0
   22.3547  133.8709   -3.4475 C   0  0  0  0  0  0  0  0  0  0  0  0
   21.9319  133.6412   -1.0342 N   0  0  0  0  0  0  0  0  0  0  0  0
   21.1533  135.6781   -2.2486 C   0  0  0  0  0  0  0  0  0  0  0  0
   21.4459  136.5558   -3.2509 C   0  0  0  0  0  0  0  0  0  0  0  0
   21.1101  137.7983   -2.8013 N   0  0  0  0  0  0  0  0  0  0  0  0
   20.6339  137.6891   -1.5795 C   0  0  0  0  0  0  0  0  0  0  0  0
   20.6398  136.3814   -1.2050 N   0  0  0  0  0  0  0  0  0  0  0  0
   20.1878  135.8329    0.0824 C   0  0  0  0  0  0  0  0  0  0  0  0
   19.2417  133.1320   -1.4041 C   0  0  0  0  0  0  0  0  0  0  0  0
   18.0112  132.5132   -1.5978 C   0  0  0  0  0  0  0  0  0  0  0  0
   17.5622  132.2459   -2.8870 C   0  0  0  0  0  0  0  0  0  0  0  0
   16.2175  131.5697   -3.0987 C   0  0  0  0  0  0  0  0  0  0  0  0
   15.1936  131.0553   -3.2608 N   0  0  0  0  0  0  0  0  0  0  0  0
   17.0427  134.2883   -6.3166 C   0  0  0  0  0  0  0  0  0  0  0  0
   15.4520  137.2305   -6.3538 C   0  0  0  0  0  0  0  0  0  0  0  0
   15.8875  138.6920   -6.3325 C   0  0  0  0  0  0  0  0  0  0  0  0
   17.0701  138.8961   -5.3996 C   0  0  0  0  0  0  0  0  0  0  0  0
   17.8068  137.5706   -5.2897 C   0  0  0  0  0  0  0  0  0  0  0  0
   18.4442  137.2129   -6.5665 N   0  0  0  0  0  0  0  0  0  0  0  0
   19.8807  137.4655   -6.7630 C   0  0  0  0  0  0  0  0  0  0  0  0
   17.6466  136.6347   -7.5677 C   0  0  0  0  0  0  0  0  0  0  0  0
   18.1792  136.3344   -8.6210 O   0  0  0  0  0  0  0  0  0  0  0  0
   15.1541  137.8959  -10.2919 H   0  0  0  0  0  0  0  0  0  0  0  0
   15.2259  138.5892   -8.8151 H   0  0  0  0  0  0  0  0  0  0  0  0
   16.5962  138.0913   -9.5508 H   0  0  0  0  0  0  0  0  0  0  0  0
   15.8708  135.8300   -9.3710 H   0  0  0  0  0  0  0  0  0  0  0  0
   14.5006  136.3280   -8.6353 H   0  0  0  0  0  0  0  0  0  0  0  0
   14.0116  134.7455   -7.6050 H   0  0  0  0  0  0  0  0  0  0  0  0
   13.7697  132.4811   -6.8761 H   0  0  0  0  0  0  0  0  0  0  0  0
   15.5781  131.3503   -5.7969 H   0  0  0  0  0  0  0  0  0  0  0  0
   20.1385  133.4692   -4.5885 H   0  0  0  0  0  0  0  0  0  0  0  0
   23.2204  134.3359   -3.2625 H   0  0  0  0  0  0  0  0  0  0  0  0
   22.5132  132.8858   -3.5150 H   0  0  0  0  0  0  0  0  0  0  0  0
   21.9731  134.2069   -4.3086 H   0  0  0  0  0  0  0  0  0  0  0  0
   22.5475  132.8787   -1.2331 H   0  0  0  0  0  0  0  0  0  0  0  0
   22.4414  134.3705   -0.5776 H   0  0  0  0  0  0  0  0  0  0  0  0
   21.8329  136.3308   -4.1451 H   0  0  0  0  0  0  0  0  0  0  0  0
   20.3166  138.4500   -1.0136 H   0  0  0  0  0  0  0  0  0  0  0  0
   20.3069  134.8400    0.0818 H   0  0  0  0  0  0  0  0  0  0  0  0
   20.7275  136.2329    0.8231 H   0  0  0  0  0  0  0  0  0  0  0  0
   19.2217  136.0527    0.2176 H   0  0  0  0  0  0  0  0  0  0  0  0
   19.5680  133.3259   -0.4789 H   0  0  0  0  0  0  0  0  0  0  0  0
   17.4491  132.2605   -0.8102 H   0  0  0  0  0  0  0  0  0  0  0  0
   17.9083  134.7666   -6.1687 H   0  0  0  0  0  0  0  0  0  0  0  0
   15.6371  136.8371   -5.4532 H   0  0  0  0  0  0  0  0  0  0  0  0
   14.4690  137.2009   -6.5348 H   0  0  0  0  0  0  0  0  0  0  0  0
   15.1234  139.2562   -6.0197 H   0  0  0  0  0  0  0  0  0  0  0  0
   16.1493  138.9685   -7.2572 H   0  0  0  0  0  0  0  0  0  0  0  0
   16.7468  139.1817   -4.4974 H   0  0  0  0  0  0  0  0  0  0  0  0
   17.6808  139.5952   -5.7716 H   0  0  0  0  0  0  0  0  0  0  0  0
   17.1557  136.8547   -5.0377 H   0  0  0  0  0  0  0  0  0  0  0  0
   18.5103  137.6452   -4.5829 H   0  0  0  0  0  0  0  0  0  0  0  0
   20.1497  137.1659   -7.6783 H   0  0  0  0  0  0  0  0  0  0  0  0
   20.0636  138.4438   -6.6652 H   0  0  0  0  0  0  0  0  0  0  0  0
   20.4049  136.9585   -6.0788 H   0  0  0  0  0  0  0  0  0  0  0  0
  1  2  1  0  0  0  0
  2  3  1  0  0  0  0
  3  4  1  0  0  0  0
  4  5  2  0  0  0  0
  5  6  1  0  0  0  0
  6  7  2  0  0  0  0
  7  8  1  0  0  0  0
  8  9  1  0  0  0  0
  9 10  1  0  0  0  0
 10 11  2  0  0  0  0
 11 12  1  0  0  0  0
 12 13  1  0  0  0  0
 13 14  1  0  0  0  0
 13 15  1  0  0  0  0
 13 16  1  0  0  0  0
 16 17  2  0  0  0  0
 17 18  1  0  0  0  0
 18 19  2  0  0  0  0
 19 20  1  0  0  0  0
 20 21  1  0  0  0  0
 12 22  2  0  0  0  0
 22 23  1  0  0  0  0
 23 24  2  0  0  0  0
 24 25  1  0  0  0  0
 25 26  3  0  0  0  0
  8 27  2  0  0  0  0
  3 28  1  0  0  0  0
 28 29  1  0  0  0  0
 29 30  1  0  0  0  0
 30 31  1  0  0  0  0
 31 32  1  0  0  0  0
 32 33  1  0  0  0  0
 32 34  1  0  0  0  0
 34 35  2  0  0  0  0
 34  3  1  0  0  0  0
 27  4  1  0  0  0  0
 24 10  1  0  0  0  0
 20 16  1  0  0  0  0
  1 36  1  0  0  0  0
  1 37  1  0  0  0  0
  1 38  1  0  0  0  0
  2 39  1  0  0  0  0
  2 40  1  0  0  0  0
  5 41  1  0  0  0  0
  6 42  1  0  0  0  0
  7 43  1  0  0  0  0
 11 44  1  0  0  0  0
 14 45  1  0  0  0  0
 14 46  1  0  0  0  0
 14 47  1  0  0  0  0
 33 68  1  0  0  0  0
 15 48  1  0  0  0  0
 15 49  1  0  0  0  0
 17 50  1  0  0  0  0
 19 51  1  0  0  0  0
 21 52  1  0  0  0  0
 21 53  1  0  0  0  0
 21 54  1  0  0  0  0
 22 55  1  0  0  0  0
 23 56  1  0  0  0  0
 27 57  1  0  0  0  0
 28 58  1  0  0  0  0
 28 59  1  0  0  0  0
 29 60  1  0  0  0  0
 29 61  1  0  0  0  0
 30 62  1  0  0  0  0
 30 63  1  0  0  0  0
 31 64  1  0  0  0  0
 31 65  1  0  0  0  0
 33 66  1  0  0  0  0
 33 67  1  0  0  0  0
M  END
> <BIOSOLVEIT.HYDE_ESTIMATED_AFFINITY_LOWER_BOUNDARY [nM]>
50703586.816085

> <BIOSOLVEIT.HYDE_ESTIMATED_AFFINITY_UPPER_BOUNDARY [nM]>
5037701133.508516

> <BIOSOLVEIT.HYDE_LIGAND_EFFICIENCY range: ++, +, 0, -, -->
--

> <BIOSOLVEIT.HYDE_LIGAND_LIPOPHILIC_EFFICIENCY range: ++, +, 0, -, -->
--

> <BIOSOLVEIT.INTER_CLASH range: red, yellow, green>
green

> <BIOSOLVEIT.INTRA_CLASH range: red, yellow, green>
green

> <BIOSOLVEIT.LOGP>
4.59638

> <BIOSOLVEIT.MOLECULAR WEIGHT>
471.602

> <BIOSOLVEIT.MOLECULE_CHECKSUM>
LTEuNjkxNjU7MC4wNDgzMzI5

> <BIOSOLVEIT.TORSION_QUALITY range: red, yellow, green, not rotatable>
green

> <BIOSOLVEIT.TPSA>
97.17

$$$$
1LD7_U66_1
foHydescor03232113463D 1   1.00000     0.00000     0
Hydescorer 1.1.0 fol007
 62 67  0  0  0  0            999 V2000
   15.5957  137.4314   -1.0409 N   0  0  0  0  0  0  0  0  0  0  0  0
   16.2021  137.9716   -0.2160 C   0  0  0  0  0  0  0  0  0  0  0  0
   16.9727  138.6578    0.8409 C   0  0  1  0  0  0  0  0  0  0  0  0
   16.5212  138.1494    2.2201 C   0  0  0  0  0  0  0  0  0  0  0  0
   16.9545  136.7226    2.4638 C   0  0  0  0  0  0  0  0  0  0  0  0
   18.0422  136.1791    1.8721 C   0  0  0  0  0  0  0  0  0  0  0  0
   18.8647  136.9423    0.8528 C   0  0  0  0  0  0  0  0  0  0  0  0
   18.4964  138.4304    0.7142 C   0  0  1  0  0  0  0  0  0  0  0  0
   19.0696  139.0232   -0.4652 O   0  0  0  0  0  0  0  0  0  0  0  0
   18.7246  138.6885   -1.7816 C   0  0  0  0  0  0  0  0  0  0  0  0
   17.8038  139.4831   -2.4675 C   0  0  0  0  0  0  0  0  0  0  0  0
   17.4002  139.1411   -3.7563 C   0  0  0  0  0  0  0  0  0  0  0  0
   17.9149  137.9946   -4.3787 C   0  0  0  0  0  0  0  0  0  0  0  0
   17.4775  137.6463   -5.6629 C   0  0  0  0  0  0  0  0  0  0  0  0
   17.9743  136.5068   -6.2881 C   0  0  0  0  0  0  0  0  0  0  0  0
   18.9120  135.7031   -5.6429 C   0  0  0  0  0  0  0  0  0  0  0  0
   19.3809  136.0261   -4.3573 C   0  0  0  0  0  0  0  0  0  0  0  0
   18.8795  137.1907   -3.7104 C   0  0  0  0  0  0  0  0  0  0  0  0
   19.3103  137.5859   -2.4253 C   0  0  0  0  0  0  0  0  0  0  0  0
   20.3391  135.1509   -3.7272 N   0  0  0  0  0  0  0  0  0  0  0  0
   21.5346  134.6208   -4.3711 C   0  0  0  0  0  0  0  0  0  0  0  0
   21.9322  133.3779   -3.5525 C   0  0  0  0  0  0  0  0  0  0  0  0
   21.2688  133.5433   -2.1704 C   0  0  1  0  0  0  0  0  0  0  0  0
   22.2335  134.1436   -1.2196 N   0  3  0  0  0  0  0  0  0  0  0  0
   21.6502  134.6129    0.0486 C   0  0  0  0  0  0  0  0  0  0  0  0
   21.0797  133.4799    0.9149 C   0  0  0  0  0  0  0  0  0  0  0  0
   20.7959  133.9836    2.3081 C   0  0  0  0  0  0  0  0  0  0  0  0
   21.7268  134.0461    3.3233 C   0  0  0  0  0  0  0  0  0  0  0  0
   21.1744  134.6278    4.4063 N   0  0  0  0  0  0  0  0  0  0  0  0
   19.9132  134.9188    4.0253 C   0  0  0  0  0  0  0  0  0  0  0  0
   19.6535  134.5533    2.7533 N   0  0  0  0  0  0  0  0  0  0  0  0
   18.3649  134.7144    2.0758 C   0  0  0  0  0  0  0  0  0  0  0  0
   20.1412  134.4577   -2.5065 C   0  0  0  0  0  0  0  0  0  0  0  0
   19.0702  134.5215   -1.8459 O   0  0  0  0  0  0  0  0  0  0  0  0
   16.7893  139.6393    0.7853 H   0  0  0  0  0  0  0  0  0  0  0  0
   15.5237  138.1978    2.2719 H   0  0  0  0  0  0  0  0  0  0  0  0
   16.9204  138.7338    2.9267 H   0  0  0  0  0  0  0  0  0  0  0  0
   16.4150  136.1573    3.0878 H   0  0  0  0  0  0  0  0  0  0  0  0
   18.7395  136.5060   -0.0383 H   0  0  0  0  0  0  0  0  0  0  0  0
   19.8263  136.8829    1.1209 H   0  0  0  0  0  0  0  0  0  0  0  0
   18.9150  138.8964    1.4937 H   0  0  0  0  0  0  0  0  0  0  0  0
   17.4320  140.3025   -2.0312 H   0  0  0  0  0  0  0  0  0  0  0  0
   16.7402  139.7159   -4.2400 H   0  0  0  0  0  0  0  0  0  0  0  0
   16.8055  138.2190   -6.1324 H   0  0  0  0  0  0  0  0  0  0  0  0
   17.6569  136.2635   -7.2046 H   0  0  0  0  0  0  0  0  0  0  0  0
   19.2569  134.8841   -6.1014 H   0  0  0  0  0  0  0  0  0  0  0  0
   20.0395  137.0760   -1.9689 H   0  0  0  0  0  0  0  0  0  0  0  0
   22.2694  135.2989   -4.3547 H   0  0  0  0  0  0  0  0  0  0  0  0
   21.3370  134.3663   -5.3178 H   0  0  0  0  0  0  0  0  0  0  0  0
   22.9264  133.3296   -3.4562 H   0  0  0  0  0  0  0  0  0  0  0  0
   21.5998  132.5474   -3.9995 H   0  0  0  0  0  0  0  0  0  0  0  0
   20.9290  132.6667   -1.8296 H   0  0  0  0  0  0  0  0  0  0  0  0
   22.6666  134.9248   -1.6693 H   0  0  0  0  0  0  0  0  0  0  0  0
   22.9269  133.4555   -1.0059 H   0  0  0  0  0  0  0  0  0  0  0  0
   20.9120  135.2544   -0.1604 H   0  0  0  0  0  0  0  0  0  0  0  0
   22.3623  135.0828    0.5702 H   0  0  0  0  0  0  0  0  0  0  0  0
   21.7436  132.7336    0.9621 H   0  0  0  0  0  0  0  0  0  0  0  0
   20.2310  133.1457    0.5050 H   0  0  0  0  0  0  0  0  0  0  0  0
   22.6673  133.7112    3.2651 H   0  0  0  0  0  0  0  0  0  0  0  0
   19.2424  135.3587    4.6225 H   0  0  0  0  0  0  0  0  0  0  0  0
   17.6476  134.2952    2.6324 H   0  0  0  0  0  0  0  0  0  0  0  0
   18.4040  134.2606    1.1855 H   0  0  0  0  0  0  0  0  0  0  0  0
  1  2  3  0  0  0  0
  2  3  1  0  0  0  0
  3  4  1  0  0  0  0
  4  5  1  0  0  0  0
  5  6  2  0  0  0  0
  6  7  1  0  0  0  0
  7  8  1  0  0  0  0
  8  9  1  0  0  0  0
  9 10  1  0  0  0  0
 10 11  2  0  0  0  0
 11 12  1  0  0  0  0
 12 13  2  0  0  0  0
 13 14  1  0  0  0  0
 14 15  2  0  0  0  0
 15 16  1  0  0  0  0
 16 17  2  0  0  0  0
 17 18  1  0  0  0  0
 18 19  2  0  0  0  0
 17 20  1  0  0  0  0
 20 21  1  0  0  0  0
 21 22  1  0  0  0  0
 22 23  1  0  0  0  0
 23 24  1  0  0  0  0
 24 25  1  0  0  0  0
 25 26  1  0  0  0  0
 26 27  1  0  0  0  0
 27 28  2  0  0  0  0
 28 29  1  0  0  0  0
 29 30  2  0  0  0  0
 30 31  1  0  0  0  0
 31 32  1  0  0  0  0
 23 33  1  0  0  0  0
 33 34  2  0  0  0  0
  8  3  1  0  0  0  0
 19 10  1  0  0  0  0
 33 20  1  0  0  0  0
 32  6  1  0  0  0  0
 18 13  1  0  0  0  0
 31 27  1  0  0  0  0
  3 35  1  0  0  0  0
  4 36  1  0  0  0  0
  4 37  1  0  0  0  0
  5 38  1  0  0  0  0
  7 39  1  0  0  0  0
  7 40  1  0  0  0  0
  8 41  1  0  0  0  0
 11 42  1  0  0  0  0
 12 43  1  0  0  0  0
 14 44  1  0  0  0  0
 15 45  1  0  0  0  0
 16 46  1  0  0  0  0
 19 47  1  0  0  0  0
 21 48  1  0  0  0  0
 21 49  1  0  0  0  0
 22 50  1  0  0  0  0
 22 51  1  0  0  0  0
 23 52  1  0  0  0  0
 24 53  1  0  0  0  0
 24 54  1  0  0  0  0
 25 55  1  0  0  0  0
 25 56  1  0  0  0  0
 26 57  1  0  0  0  0
 26 58  1  0  0  0  0
 28 59  1  0  0  0  0
 30 60  1  0  0  0  0
 32 61  1  0  0  0  0
 32 62  1  0  0  0  0
M  CHG  1  24   1
M  END
> <BIOSOLVEIT.HYDE_ESTIMATED_AFFINITY_LOWER_BOUNDARY [nM]>
147748443.205962

> <BIOSOLVEIT.HYDE_ESTIMATED_AFFINITY_UPPER_BOUNDARY [nM]>
14679681390.442978

> <BIOSOLVEIT.HYDE_LIGAND_EFFICIENCY range: ++, +, 0, -, -->
--

> <BIOSOLVEIT.HYDE_LIGAND_LIPOPHILIC_EFFICIENCY range: ++, +, 0, -, -->
--

> <BIOSOLVEIT.INTER_CLASH range: red, yellow, green>
green

> <BIOSOLVEIT.INTRA_CLASH range: red, yellow, green>
green

> <BIOSOLVEIT.LOGP>
2.56868

> <BIOSOLVEIT.MOLECULAR WEIGHT>
454.551

> <BIOSOLVEIT.MOLECULE_CHECKSUM>
MC45NTk2Mjk7MA==

> <BIOSOLVEIT.TORSION_QUALITY range: red, yellow, green, not rotatable>
not rotatable

> <BIOSOLVEIT.TPSA>
87.76

$$$$
1LD7_U66_2
foHydescor03232113463D 1   1.00000     0.00000     0
Hydescorer 1.1.0 fol007
 62 67  0  0  0  0            999 V2000
   16.3781  138.9864   -2.0470 N   0  0  0  0  0  0  0  0  0  0  0  0
   16.7716  139.0131   -0.9586 C   0  0  0  0  0  0  0  0  0  0  0  0
   17.2689  139.0440    0.4319 C   0  0  1  0  0  0  0  0  0  0  0  0
   16.2655  138.3312    1.3538 C   0  0  0  0  0  0  0  0  0  0  0  0
   16.2441  136.8393    1.1160 C   0  0  0  0  0  0  0  0  0  0  0  0
   17.3107  136.1616    0.6345 C   0  0  0  0  0  0  0  0  0  0  0  0
   18.5870  136.8668    0.2201 C   0  0  0  0  0  0  0  0  0  0  0  0
   18.6457  138.3596    0.5907 C   0  0  1  0  0  0  0  0  0  0  0  0
   19.7107  139.0462   -0.0917 O   0  0  0  0  0  0  0  0  0  0  0  0
   19.7716  139.2609   -1.4751 C   0  0  0  0  0  0  0  0  0  0  0  0
   19.3546  140.4889   -1.9927 C   0  0  0  0  0  0  0  0  0  0  0  0
   19.3512  140.7089   -3.3685 C   0  0  0  0  0  0  0  0  0  0  0  0
   19.7667  139.6988   -4.2482 C   0  0  0  0  0  0  0  0  0  0  0  0
   19.7294  139.9234   -5.6302 C   0  0  0  0  0  0  0  0  0  0  0  0
   20.1314  138.9265   -6.5139 C   0  0  0  0  0  0  0  0  0  0  0  0
   20.5757  137.6971   -6.0319 C   0  0  0  0  0  0  0  0  0  0  0  0
   20.6352  137.4388   -4.6511 C   0  0  0  0  0  0  0  0  0  0  0  0
   20.2274  138.4530   -3.7394 C   0  0  0  0  0  0  0  0  0  0  0  0
   20.2694  138.2722   -2.3398 C   0  0  0  0  0  0  0  0  0  0  0  0
   21.0866  136.1430   -4.2056 N   0  0  0  0  0  0  0  0  0  0  0  0
   22.2724  135.4563   -4.7027 C   0  0  0  0  0  0  0  0  0  0  0  0
   22.0636  133.9677   -4.3657 C   0  0  0  0  0  0  0  0  0  0  0  0
   21.0232  133.9265   -3.2284 C   0  0  1  0  0  0  0  0  0  0  0  0
   21.7135  133.8465   -1.9198 N   0  3  0  0  0  0  0  0  0  0  0  0
   20.8559  134.0829   -0.7462 C   0  0  0  0  0  0  0  0  0  0  0  0
   19.7754  133.0083   -0.5528 C   0  0  0  0  0  0  0  0  0  0  0  0
   19.1553  133.1355    0.8164 C   0  0  0  0  0  0  0  0  0  0  0  0
   19.6676  132.5687    1.9642 C   0  0  0  0  0  0  0  0  0  0  0  0
   18.9278  132.9502    3.0242 N   0  0  0  0  0  0  0  0  0  0  0  0
   17.9792  133.7542    2.5007 C   0  0  0  0  0  0  0  0  0  0  0  0
   18.0954  133.8991    1.1648 N   0  0  0  0  0  0  0  0  0  0  0  0
   17.1936  134.6856    0.3201 C   0  0  0  0  0  0  0  0  0  0  0  0
   20.3257  135.2266   -3.4369 C   0  0  0  0  0  0  0  0  0  0  0  0
   19.1389  135.4506   -3.0777 O   0  0  0  0  0  0  0  0  0  0  0  0
   17.3495  139.9975    0.7223 H   0  0  0  0  0  0  0  0  0  0  0  0
   15.3515  138.6990    1.1828 H   0  0  0  0  0  0  0  0  0  0  0  0
   16.5215  138.5033    2.3050 H   0  0  0  0  0  0  0  0  0  0  0  0
   15.4072  136.3324    1.3230 H   0  0  0  0  0  0  0  0  0  0  0  0
   18.6781  136.7884   -0.7726 H   0  0  0  0  0  0  0  0  0  0  0  0
   19.3559  136.4054    0.6628 H   0  0  0  0  0  0  0  0  0  0  0  0
   18.8668  138.3978    1.5653 H   0  0  0  0  0  0  0  0  0  0  0  0
   19.0568  141.2147   -1.3725 H   0  0  0  0  0  0  0  0  0  0  0  0
   19.0510  141.5914   -3.7305 H   0  0  0  0  0  0  0  0  0  0  0  0
   19.4127  140.8038   -5.9833 H   0  0  0  0  0  0  0  0  0  0  0  0
   20.1012  139.0933   -7.4994 H   0  0  0  0  0  0  0  0  0  0  0  0
   20.8565  136.9874   -6.6780 H   0  0  0  0  0  0  0  0  0  0  0  0
   20.6571  137.4321   -1.9605 H   0  0  0  0  0  0  0  0  0  0  0  0
   23.0929  135.8046   -4.2495 H   0  0  0  0  0  0  0  0  0  0  0  0
   22.3591  135.5812   -5.6911 H   0  0  0  0  0  0  0  0  0  0  0  0
   22.9237  133.5565   -4.0638 H   0  0  0  0  0  0  0  0  0  0  0  0
   21.7218  133.4755   -5.1663 H   0  0  0  0  0  0  0  0  0  0  0  0
   20.3929  133.1594   -3.3478 H   0  0  0  0  0  0  0  0  0  0  0  0
   22.4438  134.5295   -1.9125 H   0  0  0  0  0  0  0  0  0  0  0  0
   22.1107  132.9328   -1.8344 H   0  0  0  0  0  0  0  0  0  0  0  0
   20.4054  134.9690   -0.8562 H   0  0  0  0  0  0  0  0  0  0  0  0
   21.4337  134.1018    0.0698 H   0  0  0  0  0  0  0  0  0  0  0  0
   20.1895  132.1028   -0.6452 H   0  0  0  0  0  0  0  0  0  0  0  0
   19.0665  133.1233   -1.2487 H   0  0  0  0  0  0  0  0  0  0  0  0
   20.4653  131.9670    2.0041 H   0  0  0  0  0  0  0  0  0  0  0  0
   17.2660  134.1957    3.0451 H   0  0  0  0  0  0  0  0  0  0  0  0
   16.2521  134.3899    0.4819 H   0  0  0  0  0  0  0  0  0  0  0  0
   17.4297  134.5355   -0.6399 H   0  0  0  0  0  0  0  0  0  0  0  0
  1  2  3  0  0  0  0
  2  3  1  0  0  0  0
  3  4  1  0  0  0  0
  4  5  1  0  0  0  0
  5  6  2  0  0  0  0
  6  7  1  0  0  0  0
  7  8  1  0  0  0  0
  8  9  1  0  0  0  0
  9 10  1  0  0  0  0
 10 11  2  0  0  0  0
 11 12  1  0  0  0  0
 12 13  2  0  0  0  0
 13 14  1  0  0  0  0
 14 15  2  0  0  0  0
 15 16  1  0  0  0  0
 16 17  2  0  0  0  0
 17 18  1  0  0  0  0
 18 19  2  0  0  0  0
 17 20  1  0  0  0  0
 20 21  1  0  0  0  0
 21 22  1  0  0  0  0
 22 23  1  0  0  0  0
 23 24  1  0  0  0  0
 24 25  1  0  0  0  0
 25 26  1  0  0  0  0
 26 27  1  0  0  0  0
 27 28  2  0  0  0  0
 28 29  1  0  0  0  0
 29 30  2  0  0  0  0
 30 31  1  0  0  0  0
 31 32  1  0  0  0  0
 23 33  1  0  0  0  0
 33 34  2  0  0  0  0
  8  3  1  0  0  0  0
 19 10  1  0  0  0  0
 33 20  1  0  0  0  0
 32  6  1  0  0  0  0
 18 13  1  0  0  0  0
 31 27  1  0  0  0  0
  3 35  1  0  0  0  0
  4 36  1  0  0  0  0
  4 37  1  0  0  0  0
  5 38  1  0  0  0  0
  7 39  1  0  0  0  0
  7 40  1  0  0  0  0
  8 41  1  0  0  0  0
 11 42  1  0  0  0  0
 12 43  1  0  0  0  0
 14 44  1  0  0  0  0
 15 45  1  0  0  0  0
 16 46  1  0  0  0  0
 19 47  1  0  0  0  0
 21 48  1  0  0  0  0
 21 49  1  0  0  0  0
 22 50  1  0  0  0  0
 22 51  1  0  0  0  0
 23 52  1  0  0  0  0
 24 53  1  0  0  0  0
 24 54  1  0  0  0  0
 25 55  1  0  0  0  0
 25 56  1  0  0  0  0
 26 57  1  0  0  0  0
 26 58  1  0  0  0  0
 28 59  1  0  0  0  0
 30 60  1  0  0  0  0
 32 61  1  0  0  0  0
 32 62  1  0  0  0  0
M  CHG  1  24   1
M  END
> <BIOSOLVEIT.HYDE_ESTIMATED_AFFINITY_LOWER_BOUNDARY [nM]>
572109243.535476

> <BIOSOLVEIT.HYDE_ESTIMATED_AFFINITY_UPPER_BOUNDARY [nM]>
56842435922.798462

> <BIOSOLVEIT.HYDE_LIGAND_EFFICIENCY range: ++, +, 0, -, -->
--

> <BIOSOLVEIT.HYDE_LIGAND_LIPOPHILIC_EFFICIENCY range: ++, +, 0, -, -->
--

> <BIOSOLVEIT.INTER_CLASH range: red, yellow, green>
yellow

> <BIOSOLVEIT.INTRA_CLASH range: red, yellow, green>
green

> <BIOSOLVEIT.LOGP>
2.56868

> <BIOSOLVEIT.MOLECULAR WEIGHT>
454.551

> <BIOSOLVEIT.MOLECULE_CHECKSUM>
NC4zMTU2OTsw

> <BIOSOLVEIT.TORSION_QUALITY range: red, yellow, green, not rotatable>
not rotatable

> <BIOSOLVEIT.TPSA>
87.76

$$$$
1LD7_U66_3
foHydescor03232113463D 1   1.00000     0.00000     0
Hydescorer 1.1.0 fol007
 62 67  0  0  0  0            999 V2000
   15.8171  137.9679   -2.5552 N   0  0  0  0  0  0  0  0  0  0  0  0
   16.2090  138.2751   -1.5102 C   0  0  0  0  0  0  0  0  0  0  0  0
   16.7050  138.6635   -0.1742 C   0  0  1  0  0  0  0  0  0  0  0  0
   15.8646  137.9680    0.9096 C   0  0  0  0  0  0  0  0  0  0  0  0
   16.1248  136.4805    0.9555 C   0  0  0  0  0  0  0  0  0  0  0  0
   17.2959  135.9319    0.5604 C   0  0  0  0  0  0  0  0  0  0  0  0
   18.4108  136.7679   -0.0364 C   0  0  0  0  0  0  0  0  0  0  0  0
   18.1883  138.2887    0.0461 C   0  0  1  0  0  0  0  0  0  0  0  0
   19.0966  139.0163   -0.8005 O   0  0  0  0  0  0  0  0  0  0  0  0
   19.1022  138.9690   -2.2011 C   0  0  0  0  0  0  0  0  0  0  0  0
   18.4542  139.9763   -2.9191 C   0  0  0  0  0  0  0  0  0  0  0  0
   18.3955  139.9237   -4.3101 C   0  0  0  0  0  0  0  0  0  0  0  0
   18.9867  138.8581   -5.0040 C   0  0  0  0  0  0  0  0  0  0  0  0
   18.8939  138.8025   -6.4005 C   0  0  0  0  0  0  0  0  0  0  0  0
   19.4693  137.7463   -7.1001 C   0  0  0  0  0  0  0  0  0  0  0  0
   20.1440  136.7358   -6.4182 C   0  0  0  0  0  0  0  0  0  0  0  0
   20.2651  136.7628   -5.0176 C   0  0  0  0  0  0  0  0  0  0  0  0
   19.6809  137.8400   -4.2934 C   0  0  0  0  0  0  0  0  0  0  0  0
   19.7702  137.9420   -2.8881 C   0  0  0  0  0  0  0  0  0  0  0  0
   20.9589  135.6828   -4.3595 N   0  0  0  0  0  0  0  0  0  0  0  0
   22.2486  135.1444   -4.7737 C   0  0  0  0  0  0  0  0  0  0  0  0
   22.3300  133.7357   -4.1555 C   0  0  0  0  0  0  0  0  0  0  0  0
   21.3276  133.7221   -2.9840 C   0  0  1  0  0  0  0  0  0  0  0  0
   22.0333  134.0236   -1.7166 N   0  3  0  0  0  0  0  0  0  0  0  0
   21.1580  134.3182   -0.5695 C   0  0  0  0  0  0  0  0  0  0  0  0
   20.3035  133.1199   -0.1296 C   0  0  0  0  0  0  0  0  0  0  0  0
   19.6839  133.3908    1.2188 C   0  0  0  0  0  0  0  0  0  0  0  0
   20.3059  133.1593    2.4274 C   0  0  0  0  0  0  0  0  0  0  0  0
   19.5175  133.5939    3.4305 N   0  0  0  0  0  0  0  0  0  0  0  0
   18.4283  134.0931    2.8102 C   0  0  0  0  0  0  0  0  0  0  0  0
   18.5017  133.9978    1.4668 N   0  0  0  0  0  0  0  0  0  0  0  0
   17.4585  134.4273    0.5327 C   0  0  0  0  0  0  0  0  0  0  0  0
   20.3936  134.8063   -3.3992 C   0  0  0  0  0  0  0  0  0  0  0  0
   19.1895  134.8720   -3.0338 O   0  0  0  0  0  0  0  0  0  0  0  0
   16.6058  139.6532   -0.0708 H   0  0  0  0  0  0  0  0  0  0  0  0
   14.8956  138.1210    0.7152 H   0  0  0  0  0  0  0  0  0  0  0  0
   16.0926  138.3638    1.7992 H   0  0  0  0  0  0  0  0  0  0  0  0
   15.4016  135.8771    1.2917 H   0  0  0  0  0  0  0  0  0  0  0  0
   18.5054  136.5187   -1.0003 H   0  0  0  0  0  0  0  0  0  0  0  0
   19.2576  136.5500    0.4489 H   0  0  0  0  0  0  0  0  0  0  0  0
   18.4077  138.5534    0.9852 H   0  0  0  0  0  0  0  0  0  0  0  0
   18.0300  140.7398   -2.4320 H   0  0  0  0  0  0  0  0  0  0  0  0
   17.9294  140.6493   -4.8162 H   0  0  0  0  0  0  0  0  0  0  0  0
   18.4123  139.5248   -6.8966 H   0  0  0  0  0  0  0  0  0  0  0  0
   19.3983  137.7123   -8.0971 H   0  0  0  0  0  0  0  0  0  0  0  0
   20.5483  135.9797   -6.9328 H   0  0  0  0  0  0  0  0  0  0  0  0
   20.3143  137.2767   -2.3769 H   0  0  0  0  0  0  0  0  0  0  0  0
   22.9924  135.7188   -4.4316 H   0  0  0  0  0  0  0  0  0  0  0  0
   22.3003  135.0911   -5.7710 H   0  0  0  0  0  0  0  0  0  0  0  0
   23.2555  133.5563   -3.8220 H   0  0  0  0  0  0  0  0  0  0  0  0
   22.0801  133.0445   -4.8337 H   0  0  0  0  0  0  0  0  0  0  0  0
   20.8535  132.8433   -2.9290 H   0  0  0  0  0  0  0  0  0  0  0  0
   22.6205  134.8183   -1.8704 H   0  0  0  0  0  0  0  0  0  0  0  0
   22.5978  133.2327   -1.4805 H   0  0  0  0  0  0  0  0  0  0  0  0
   20.5464  135.0680   -0.8220 H   0  0  0  0  0  0  0  0  0  0  0  0
   21.7297  134.5997    0.2012 H   0  0  0  0  0  0  0  0  0  0  0  0
   20.8812  132.3059   -0.0704 H   0  0  0  0  0  0  0  0  0  0  0  0
   19.5789  132.9663   -0.8014 H   0  0  0  0  0  0  0  0  0  0  0  0
   21.2038  132.7343    2.5421 H   0  0  0  0  0  0  0  0  0  0  0  0
   17.6496  134.4913    3.2950 H   0  0  0  0  0  0  0  0  0  0  0  0
   16.5920  133.9994    0.7899 H   0  0  0  0  0  0  0  0  0  0  0  0
   17.7095  134.1420   -0.3923 H   0  0  0  0  0  0  0  0  0  0  0  0
  1  2  3  0  0  0  0
  2  3  1  0  0  0  0
  3  4  1  0  0  0  0
  4  5  1  0  0  0  0
  5  6  2  0  0  0  0
  6  7  1  0  0  0  0
  7  8  1  0  0  0  0
  8  9  1  0  0  0  0
  9 10  1  0  0  0  0
 10 11  2  0  0  0  0
 11 12  1  0  0  0  0
 12 13  2  0  0  0  0
 13 14  1  0  0  0  0
 14 15  2  0  0  0  0
 15 16  1  0  0  0  0
 16 17  2  0  0  0  0
 17 18  1  0  0  0  0
 18 19  2  0  0  0  0
 17 20  1  0  0  0  0
 20 21  1  0  0  0  0
 21 22  1  0  0  0  0
 22 23  1  0  0  0  0
 23 24  1  0  0  0  0
 24 25  1  0  0  0  0
 25 26  1  0  0  0  0
 26 27  1  0  0  0  0
 27 28  2  0  0  0  0
 28 29  1  0  0  0  0
 29 30  2  0  0  0  0
 30 31  1  0  0  0  0
 31 32  1  0  0  0  0
 23 33  1  0  0  0  0
 33 34  2  0  0  0  0
  8  3  1  0  0  0  0
 19 10  1  0  0  0  0
 33 20  1  0  0  0  0
 32  6  1  0  0  0  0
 18 13  1  0  0  0  0
 31 27  1  0  0  0  0
  3 35  1  0  0  0  0
  4 36  1  0  0  0  0
  4 37  1  0  0  0  0
  5 38  1  0  0  0  0
  7 39  1  0  0  0  0
  7 40  1  0  0  0  0
  8 41  1  0  0  0  0
 11 42  1  0  0  0  0
 12 43  1  0  0  0  0
 14 44  1  0  0  0  0
 15 45  1  0  0  0  0
 16 46  1  0  0  0  0
 19 47  1  0  0  0  0
 21 48  1  0  0  0  0
 21 49  1  0  0  0  0
 22 50  1  0  0  0  0
 22 51  1  0  0  0  0
 23 52  1  0  0  0  0
 24 53  1  0  0  0  0
 24 54  1  0  0  0  0
 25 55  1  0  0  0  0
 25 56  1  0  0  0  0
 26 57  1  0  0  0  0
 26 58  1  0  0  0  0
 28 59  1  0  0  0  0
 30 60  1  0  0  0  0
 32 61  1  0  0  0  0
 32 62  1  0  0  0  0
M  CHG  1  24   1
M  END
> <BIOSOLVEIT.HYDE_ESTIMATED_AFFINITY_LOWER_BOUNDARY [nM]>
38227823101.498962

> <BIOSOLVEIT.HYDE_ESTIMATED_AFFINITY_UPPER_BOUNDARY [nM]>
3798160245911.645020

> <BIOSOLVEIT.HYDE_LIGAND_EFFICIENCY range: ++, +, 0, -, -->
--

> <BIOSOLVEIT.HYDE_LIGAND_LIPOPHILIC_EFFICIENCY range: ++, +, 0, -, -->
--

> <BIOSOLVEIT.INTER_CLASH range: red, yellow, green>
green

> <BIOSOLVEIT.INTRA_CLASH range: red, yellow, green>
green

> <BIOSOLVEIT.LOGP>
2.56868

> <BIOSOLVEIT.MOLECULAR WEIGHT>
454.551

> <BIOSOLVEIT.MOLECULE_CHECKSUM>
MTQuNzMyMjsw

> <BIOSOLVEIT.TORSION_QUALITY range: red, yellow, green, not rotatable>
not rotatable

> <BIOSOLVEIT.TPSA>
87.76

$$$$
1S63_778_1
foHydescor03232113463D 1   1.00000     0.00000     0
Hydescorer 1.1.0 fol007
 50 53  0  0  0  0            999 V2000
   18.4318  132.9185    3.1872 N   0  0  0  0  0  0  0  0  0  0  0  0
   18.6131  132.8993    2.0446 C   0  0  0  0  0  0  0  0  0  0  0  0
   18.8352  132.8737    0.6229 C   0  0  0  0  0  0  0  0  0  0  0  0
   17.9316  133.5127   -0.2204 C   0  0  0  0  0  0  0  0  0  0  0  0
   18.1339  133.4968   -1.5964 C   0  0  0  0  0  0  0  0  0  0  0  0
   19.2448  132.8368   -2.1113 C   0  0  0  0  0  0  0  0  0  0  0  0
   19.4770  132.8103   -3.6132 C   0  0  0  0  0  0  0  0  0  0  0  0
   20.5460  133.7343   -4.0028 N   0  0  0  0  0  0  0  0  0  0  0  0
   21.8827  133.5014   -3.8600 C   0  0  0  0  0  0  0  0  0  0  0  0
   22.5247  134.5520   -4.3214 N   0  0  0  0  0  0  0  0  0  0  0  0
   21.6125  135.4680   -4.7637 C   0  0  0  0  0  0  0  0  0  0  0  0
   20.3618  134.9600   -4.5659 C   0  0  0  0  0  0  0  0  0  0  0  0
   19.0405  135.6269   -4.9111 C   0  0  0  0  0  0  0  0  0  0  0  0
   19.1766  137.0798   -5.1945 N   0  3  2  0  0  0  0  0  0  0  0  0
   17.8902  137.7382   -4.8705 C   0  0  0  0  0  0  0  0  0  0  0  0
   17.1644  138.4452   -6.0099 C   0  0  0  0  0  0  0  0  0  0  0  0
   17.3361  137.8008   -7.3233 N   0  0  0  0  0  0  0  0  0  0  0  0
   16.2763  137.7711   -8.2381 C   0  0  0  0  0  0  0  0  0  0  0  0
   16.4186  138.4011   -9.4703 C   0  0  0  0  0  0  0  0  0  0  0  0
   15.3632  138.3670  -10.3758 C   0  0  0  0  0  0  0  0  0  0  0  0
   14.1761  137.7139  -10.0623 C   0  0  0  0  0  0  0  0  0  0  0  0
   14.0551  137.0900   -8.8246 C   0  0  0  0  0  0  0  0  0  0  0  0
   12.5443  136.2484   -8.4045 Cl  0  0  0  0  0  0  0  0  0  0  0  0
   15.0978  137.1118   -7.9043 C   0  0  0  0  0  0  0  0  0  0  0  0
   18.5739  137.2144   -7.6254 C   0  0  0  0  0  0  0  0  0  0  0  0
   18.7649  136.6735   -8.7043 O   0  0  0  0  0  0  0  0  0  0  0  0
   19.6765  137.2607   -6.5684 C   0  0  0  0  0  0  0  0  0  0  0  0
   20.1499  132.1963   -1.2712 C   0  0  0  0  0  0  0  0  0  0  0  0
   19.9452  132.2143    0.1048 C   0  0  0  0  0  0  0  0  0  0  0  0
   17.1369  133.9832    0.1628 H   0  0  0  0  0  0  0  0  0  0  0  0
   17.4886  133.9543   -2.2081 H   0  0  0  0  0  0  0  0  0  0  0  0
   18.6321  133.0749   -4.0782 H   0  0  0  0  0  0  0  0  0  0  0  0
   19.7319  131.8830   -3.8872 H   0  0  0  0  0  0  0  0  0  0  0  0
   22.2997  132.6788   -3.4735 H   0  0  0  0  0  0  0  0  0  0  0  0
   21.8254  136.3593   -5.1643 H   0  0  0  0  0  0  0  0  0  0  0  0
   18.4143  135.5105   -4.1401 H   0  0  0  0  0  0  0  0  0  0  0  0
   18.6598  135.1791   -5.7201 H   0  0  0  0  0  0  0  0  0  0  0  0
   19.8679  137.4454   -4.5713 H   0  0  0  0  0  0  0  0  0  0  0  0
   18.0708  138.4187   -4.1603 H   0  0  0  0  0  0  0  0  0  0  0  0
   17.2750  137.0365   -4.5110 H   0  0  0  0  0  0  0  0  0  0  0  0
   17.5121  139.3808   -6.0712 H   0  0  0  0  0  0  0  0  0  0  0  0
   16.1879  138.4658   -5.7955 H   0  0  0  0  0  0  0  0  0  0  0  0
   17.2694  138.8727   -9.7023 H   0  0  0  0  0  0  0  0  0  0  0  0
   15.4592  138.8179  -11.2632 H   0  0  0  0  0  0  0  0  0  0  0  0
   13.4204  137.6929  -10.7169 H   0  0  0  0  0  0  0  0  0  0  0  0
   15.0018  136.6608   -7.0169 H   0  0  0  0  0  0  0  0  0  0  0  0
   20.1334  138.1484   -6.6254 H   0  0  0  0  0  0  0  0  0  0  0  0
   20.3347  136.5338   -6.7647 H   0  0  0  0  0  0  0  0  0  0  0  0
   20.9441  131.7250   -1.6547 H   0  0  0  0  0  0  0  0  0  0  0  0
   20.5908  131.7570    0.7165 H   0  0  0  0  0  0  0  0  0  0  0  0
  1  2  3  0  0  0  0
  2  3  1  0  0  0  0
  3  4  2  0  0  0  0
  4  5  1  0  0  0  0
  5  6  2  0  0  0  0
  6  7  1  0  0  0  0
  7  8  1  0  0  0  0
  8  9  1  0  0  0  0
  9 10  2  0  0  0  0
 10 11  1  0  0  0  0
 11 12  2  0  0  0  0
 12 13  1  0  0  0  0
 13 14  1  0  0  0  0
 14 15  1  0  0  0  0
 15 16  1  0  0  0  0
 16 17  1  0  0  0  0
 17 18  1  0  0  0  0
 18 19  2  0  0  0  0
 19 20  1  0  0  0  0
 20 21  2  0  0  0  0
 21 22  1  0  0  0  0
 22 23  1  0  0  0  0
 22 24  2  0  0  0  0
 17 25  1  0  0  0  0
 25 26  2  0  0  0  0
 25 27  1  0  0  0  0
  6 28  1  0  0  0  0
 28 29  2  0  0  0  0
 29  3  1  0  0  0  0
 12  8  1  0  0  0  0
 27 14  1  0  0  0  0
 24 18  1  0  0  0  0
  4 30  1  0  0  0  0
  5 31  1  0  0  0  0
  7 32  1  0  0  0  0
  7 33  1  0  0  0  0
  9 34  1  0  0  0  0
 11 35  1  0  0  0  0
 13 36  1  0  0  0  0
 13 37  1  0  0  0  0
 14 38  1  0  0  0  0
 15 39  1  0  0  0  0
 15 40  1  0  0  0  0
 16 41  1  0  0  0  0
 16 42  1  0  0  0  0
 19 43  1  0  0  0  0
 20 44  1  0  0  0  0
 21 45  1  0  0  0  0
 24 46  1  0  0  0  0
 27 47  1  0  0  0  0
 27 48  1  0  0  0  0
 28 49  1  0  0  0  0
 29 50  1  0  0  0  0
M  CHG  1  14   1
M  END
> <BIOSOLVEIT.HYDE_ESTIMATED_AFFINITY_LOWER_BOUNDARY [nM]>
2396154.361579

> <BIOSOLVEIT.HYDE_ESTIMATED_AFFINITY_UPPER_BOUNDARY [nM]>
238072103.008652

> <BIOSOLVEIT.HYDE_LIGAND_EFFICIENCY range: ++, +, 0, -, -->
--

> <BIOSOLVEIT.HYDE_LIGAND_LIPOPHILIC_EFFICIENCY range: ++, +, 0, -, -->
--

> <BIOSOLVEIT.INTER_CLASH range: red, yellow, green>
green

> <BIOSOLVEIT.INTRA_CLASH range: red, yellow, green>
green

> <BIOSOLVEIT.LOGP>
1.88818

> <BIOSOLVEIT.MOLECULAR WEIGHT>
406.895

> <BIOSOLVEIT.MOLECULE_CHECKSUM>
LTkuMjU3NzU7MC4zMTkyMzM=

> <BIOSOLVEIT.TORSION_QUALITY range: red, yellow, green, not rotatable>
green

> <BIOSOLVEIT.TPSA>
66.36

$$$$
1S63_778_2
foHydescor03232113463D 1   1.00000     0.00000     0
Hydescorer 1.1.0 fol007
 50 53  0  0  0  0            999 V2000
   19.9298  131.1485    3.0273 N   0  0  0  0  0  0  0  0  0  0  0  0
   19.8947  131.9722    2.2152 C   0  0  0  0  0  0  0  0  0  0  0  0
   19.8470  133.0567    1.1513 C   0  0  0  0  0  0  0  0  0  0  0  0
   20.5438  134.2435    1.3552 C   0  0  0  0  0  0  0  0  0  0  0  0
   20.5098  135.2443    0.3900 C   0  0  0  0  0  0  0  0  0  0  0  0
   19.7734  135.0412   -0.7725 C   0  0  0  0  0  0  0  0  0  0  0  0
   19.7269  136.1184   -1.8260 C   0  0  0  0  0  0  0  0  0  0  0  0
   20.8092  135.9526   -2.8073 N   0  0  0  0  0  0  0  0  0  0  0  0
   22.1259  135.7594   -2.5064 C   0  0  0  0  0  0  0  0  0  0  0  0
   22.7849  135.6531   -3.6393 N   0  0  0  0  0  0  0  0  0  0  0  0
   21.9040  135.7766   -4.6762 C   0  0  0  0  0  0  0  0  0  0  0  0
   20.6554  135.9663   -4.1599 C   0  0  0  0  0  0  0  0  0  0  0  0
   19.3697  136.1469   -4.9352 C   0  0  0  0  0  0  0  0  0  0  0  0
   19.3064  137.4298   -5.6606 N   0  3  2  0  0  0  0  0  0  0  0  0
   18.0292  138.1348   -5.4640 C   0  0  0  0  0  0  0  0  0  0  0  0
   16.8673  137.2290   -5.8406 C   0  0  0  0  0  0  0  0  0  0  0  0
   17.0675  136.6300   -7.1729 N   0  0  0  0  0  0  0  0  0  0  0  0
   15.9822  136.0498   -7.8347 C   0  0  0  0  0  0  0  0  0  0  0  0
   15.5860  134.7597   -7.4972 C   0  0  0  0  0  0  0  0  0  0  0  0
   14.5039  134.1876   -8.1581 C   0  0  0  0  0  0  0  0  0  0  0  0
   13.8203  134.8886   -9.1456 C   0  0  0  0  0  0  0  0  0  0  0  0
   14.2331  136.1776   -9.4673 C   0  0  0  0  0  0  0  0  0  0  0  0
   13.3712  137.0917  -10.7278 Cl  0  0  0  0  0  0  0  0  0  0  0  0
   15.3125  136.7688   -8.8190 C   0  0  0  0  0  0  0  0  0  0  0  0
   18.3297  136.6157   -7.7854 C   0  0  0  0  0  0  0  0  0  0  0  0
   18.4948  136.0739   -8.8686 O   0  0  0  0  0  0  0  0  0  0  0  0
   19.5295  137.2667   -7.1059 C   0  0  0  0  0  0  0  0  0  0  0  0
   19.0750  133.8561   -0.9794 C   0  0  0  0  0  0  0  0  0  0  0  0
   19.1113  132.8565   -0.0123 C   0  0  0  0  0  0  0  0  0  0  0  0
   21.0691  134.3769    2.1957 H   0  0  0  0  0  0  0  0  0  0  0  0
   21.0087  136.0996    0.5301 H   0  0  0  0  0  0  0  0  0  0  0  0
   19.8216  137.0105   -1.3841 H   0  0  0  0  0  0  0  0  0  0  0  0
   18.8475  136.0729   -2.3000 H   0  0  0  0  0  0  0  0  0  0  0  0
   22.5194  135.7077   -1.5885 H   0  0  0  0  0  0  0  0  0  0  0  0
   22.1350  135.7350   -5.6483 H   0  0  0  0  0  0  0  0  0  0  0  0
   18.6032  136.1057   -4.2944 H   0  0  0  0  0  0  0  0  0  0  0  0
   19.2905  135.4024   -5.5980 H   0  0  0  0  0  0  0  0  0  0  0  0
   20.0346  138.0158   -5.3052 H   0  0  0  0  0  0  0  0  0  0  0  0
   18.0109  138.9524   -6.0396 H   0  0  0  0  0  0  0  0  0  0  0  0
   17.9429  138.4011   -4.5039 H   0  0  0  0  0  0  0  0  0  0  0  0
   16.0240  137.7664   -5.8481 H   0  0  0  0  0  0  0  0  0  0  0  0
   16.7908  136.4980   -5.1626 H   0  0  0  0  0  0  0  0  0  0  0  0
   16.0731  134.2498   -6.7881 H   0  0  0  0  0  0  0  0  0  0  0  0
   14.2140  133.2606   -7.9200 H   0  0  0  0  0  0  0  0  0  0  0  0
   13.0433  134.4721   -9.6177 H   0  0  0  0  0  0  0  0  0  0  0  0
   15.6022  137.6959   -9.0569 H   0  0  0  0  0  0  0  0  0  0  0  0
   19.6860  138.1661   -7.5142 H   0  0  0  0  0  0  0  0  0  0  0  0
   20.3351  136.6915   -7.2476 H   0  0  0  0  0  0  0  0  0  0  0  0
   18.5492  133.7233   -1.8195 H   0  0  0  0  0  0  0  0  0  0  0  0
   18.6126  132.0011   -0.1525 H   0  0  0  0  0  0  0  0  0  0  0  0
  1  2  3  0  0  0  0
  2  3  1  0  0  0  0
  3  4  2  0  0  0  0
  4  5  1  0  0  0  0
  5  6  2  0  0  0  0
  6  7  1  0  0  0  0
  7  8  1  0  0  0  0
  8  9  1  0  0  0  0
  9 10  2  0  0  0  0
 10 11  1  0  0  0  0
 11 12  2  0  0  0  0
 12 13  1  0  0  0  0
 13 14  1  0  0  0  0
 14 15  1  0  0  0  0
 15 16  1  0  0  0  0
 16 17  1  0  0  0  0
 17 18  1  0  0  0  0
 18 19  2  0  0  0  0
 19 20  1  0  0  0  0
 20 21  2  0  0  0  0
 21 22  1  0  0  0  0
 22 23  1  0  0  0  0
 22 24  2  0  0  0  0
 17 25  1  0  0  0  0
 25 26  2  0  0  0  0
 25 27  1  0  0  0  0
  6 28  1  0  0  0  0
 28 29  2  0  0  0  0
 29  3  1  0  0  0  0
 12  8  1  0  0  0  0
 27 14  1  0  0  0  0
 24 18  1  0  0  0  0
  4 30  1  0  0  0  0
  5 31  1  0  0  0  0
  7 32  1  0  0  0  0
  7 33  1  0  0  0  0
  9 34  1  0  0  0  0
 11 35  1  0  0  0  0
 13 36  1  0  0  0  0
 13 37  1  0  0  0  0
 14 38  1  0  0  0  0
 15 39  1  0  0  0  0
 15 40  1  0  0  0  0
 16 41  1  0  0  0  0
 16 42  1  0  0  0  0
 19 43  1  0  0  0  0
 20 44  1  0  0  0  0
 21 45  1  0  0  0  0
 24 46  1  0  0  0  0
 27 47  1  0  0  0  0
 27 48  1  0  0  0  0
 28 49  1  0  0  0  0
 29 50  1  0  0  0  0
M  CHG  1  14   1
M  END
> <BIOSOLVEIT.HYDE_ESTIMATED_AFFINITY_LOWER_BOUNDARY [nM]>
189376359933.017029

> <BIOSOLVEIT.HYDE_ESTIMATED_AFFINITY_UPPER_BOUNDARY [nM]>
18815661040998.097656

> <BIOSOLVEIT.HYDE_LIGAND_EFFICIENCY range: ++, +, 0, -, -->
--

> <BIOSOLVEIT.HYDE_LIGAND_LIPOPHILIC_EFFICIENCY range: ++, +, 0, -, -->
--

> <BIOSOLVEIT.INTER_CLASH range: red, yellow, green>
green

> <BIOSOLVEIT.INTRA_CLASH range: red, yellow, green>
green

> <BIOSOLVEIT.LOGP>
1.88818

> <BIOSOLVEIT.MOLECULAR WEIGHT>
406.895

> <BIOSOLVEIT.MOLECULE_CHECKSUM>
MTguNjk5OzA=

> <BIOSOLVEIT.TORSION_QUALITY range: red, yellow, green, not rotatable>
yellow

> <BIOSOLVEIT.TPSA>
66.36

$$$$
1S63_778_3
foHydescor03232113463D 1   1.00000     0.00000     0
Hydescorer 1.1.0 fol007
 50 53  0  0  0  0            999 V2000
   22.7720  133.1773   -3.1046 N   0  0  0  0  0  0  0  0  0  0  0  0
   22.0264  133.9788   -3.4793 C   0  0  0  0  0  0  0  0  0  0  0  0
   21.1011  134.9784   -3.9439 C   0  0  0  0  0  0  0  0  0  0  0  0
   21.5538  135.9872   -4.7882 C   0  0  0  0  0  0  0  0  0  0  0  0
   20.6707  136.9595   -5.2457 C   0  0  0  0  0  0  0  0  0  0  0  0
   19.3387  136.9075   -4.8481 C   0  0  0  0  0  0  0  0  0  0  0  0
   18.3634  137.9647   -5.3393 C   0  0  0  0  0  0  0  0  0  0  0  0
   17.9403  137.6992   -6.7173 N   0  0  0  0  0  0  0  0  0  0  0  0
   18.7571  137.7076   -7.8102 C   0  0  0  0  0  0  0  0  0  0  0  0
   18.0219  137.4243   -8.8628 N   0  0  0  0  0  0  0  0  0  0  0  0
   16.7303  137.2316   -8.4607 C   0  0  0  0  0  0  0  0  0  0  0  0
   16.6704  137.4037   -7.1086 C   0  0  0  0  0  0  0  0  0  0  0  0
   15.4385  137.2827   -6.2268 C   0  0  0  0  0  0  0  0  0  0  0  0
   14.2966  136.6174   -6.9074 N   0  3  2  0  0  0  0  0  0  0  0  0
   13.1989  136.2821   -5.9856 C   0  0  0  0  0  0  0  0  0  0  0  0
   13.7219  135.4396   -4.8329 C   0  0  0  0  0  0  0  0  0  0  0  0
   14.5155  134.2977   -5.3230 N   0  0  0  0  0  0  0  0  0  0  0  0
   14.7933  133.2343   -4.4605 C   0  0  0  0  0  0  0  0  0  0  0  0
   16.0241  133.1820   -3.8140 C   0  0  0  0  0  0  0  0  0  0  0  0
   16.2949  132.1217   -2.9552 C   0  0  0  0  0  0  0  0  0  0  0  0
   15.3532  131.1215   -2.7389 C   0  0  0  0  0  0  0  0  0  0  0  0
   14.1286  131.1935   -3.3953 C   0  0  0  0  0  0  0  0  0  0  0  0
   12.9099  129.9236   -3.1317 Cl  0  0  0  0  0  0  0  0  0  0  0  0
   13.8371  132.2447   -4.2584 C   0  0  0  0  0  0  0  0  0  0  0  0
   15.0123  134.2627   -6.6348 C   0  0  0  0  0  0  0  0  0  0  0  0
   15.7096  133.3343   -7.0165 O   0  0  0  0  0  0  0  0  0  0  0  0
   14.7026  135.3914   -7.6121 C   0  0  0  0  0  0  0  0  0  0  0  0
   18.8827  135.9007   -4.0036 C   0  0  0  0  0  0  0  0  0  0  0  0
   19.7682  134.9290   -3.5480 C   0  0  0  0  0  0  0  0  0  0  0  0
   22.5140  136.0133   -5.0662 H   0  0  0  0  0  0  0  0  0  0  0  0
   20.9895  137.6872   -5.8530 H   0  0  0  0  0  0  0  0  0  0  0  0
   18.8072  138.8600   -5.3016 H   0  0  0  0  0  0  0  0  0  0  0  0
   17.5585  137.9663   -4.7460 H   0  0  0  0  0  0  0  0  0  0  0  0
   19.7394  137.8957   -7.8106 H   0  0  0  0  0  0  0  0  0  0  0  0
   15.9601  137.0032   -9.0562 H   0  0  0  0  0  0  0  0  0  0  0  0
   15.1533  138.2007   -5.9507 H   0  0  0  0  0  0  0  0  0  0  0  0
   15.6791  136.7502   -5.4153 H   0  0  0  0  0  0  0  0  0  0  0  0
   13.9367  137.2544   -7.5892 H   0  0  0  0  0  0  0  0  0  0  0  0
   12.4980  135.7675   -6.4796 H   0  0  0  0  0  0  0  0  0  0  0  0
   12.8009  137.1255   -5.6247 H   0  0  0  0  0  0  0  0  0  0  0  0
   12.9470  135.0947   -4.3032 H   0  0  0  0  0  0  0  0  0  0  0  0
   14.2983  136.0099   -4.2475 H   0  0  0  0  0  0  0  0  0  0  0  0
   16.7058  133.8978   -3.9649 H   0  0  0  0  0  0  0  0  0  0  0  0
   17.1777  132.0781   -2.4874 H   0  0  0  0  0  0  0  0  0  0  0  0
   15.5533  130.3615   -2.1206 H   0  0  0  0  0  0  0  0  0  0  0  0
   12.9542  132.2883   -4.7260 H   0  0  0  0  0  0  0  0  0  0  0  0
   13.9603  135.1031   -8.2170 H   0  0  0  0  0  0  0  0  0  0  0  0
   15.5196  135.5842   -8.1556 H   0  0  0  0  0  0  0  0  0  0  0  0
   17.9226  135.8753   -3.7251 H   0  0  0  0  0  0  0  0  0  0  0  0
   19.4493  134.2011   -2.9409 H   0  0  0  0  0  0  0  0  0  0  0  0
  1  2  3  0  0  0  0
  2  3  1  0  0  0  0
  3  4  2  0  0  0  0
  4  5  1  0  0  0  0
  5  6  2  0  0  0  0
  6  7  1  0  0  0  0
  7  8  1  0  0  0  0
  8  9  1  0  0  0  0
  9 10  2  0  0  0  0
 10 11  1  0  0  0  0
 11 12  2  0  0  0  0
 12 13  1  0  0  0  0
 13 14  1  0  0  0  0
 14 15  1  0  0  0  0
 15 16  1  0  0  0  0
 16 17  1  0  0  0  0
 17 18  1  0  0  0  0
 18 19  2  0  0  0  0
 19 20  1  0  0  0  0
 20 21  2  0  0  0  0
 21 22  1  0  0  0  0
 22 23  1  0  0  0  0
 22 24  2  0  0  0  0
 17 25  1  0  0  0  0
 25 26  2  0  0  0  0
 25 27  1  0  0  0  0
  6 28  1  0  0  0  0
 28 29  2  0  0  0  0
 29  3  1  0  0  0  0
 12  8  1  0  0  0  0
 27 14  1  0  0  0  0
 24 18  1  0  0  0  0
  4 30  1  0  0  0  0
  5 31  1  0  0  0  0
  7 32  1  0  0  0  0
  7 33  1  0  0  0  0
  9 34  1  0  0  0  0
 11 35  1  0  0  0  0
 13 36  1  0  0  0  0
 13 37  1  0  0  0  0
 14 38  1  0  0  0  0
 15 39  1  0  0  0  0
 15 40  1  0  0  0  0
 16 41  1  0  0  0  0
 16 42  1  0  0  0  0
 19 43  1  0  0  0  0
 20 44  1  0  0  0  0
 21 45  1  0  0  0  0
 24 46  1  0  0  0  0
 27 47  1  0  0  0  0
 27 48  1  0  0  0  0
 28 49  1  0  0  0  0
 29 50  1  0  0  0  0
M  CHG  1  14   1
M  END
> <BIOSOLVEIT.HYDE_ESTIMATED_AFFINITY_LOWER_BOUNDARY [nM]>
5177011687.549082

> <BIOSOLVEIT.HYDE_ESTIMATED_AFFINITY_UPPER_BOUNDARY [nM]>
514366720073.523865

> <BIOSOLVEIT.HYDE_LIGAND_EFFICIENCY range: ++, +, 0, -, -->
--

> <BIOSOLVEIT.HYDE_LIGAND_LIPOPHILIC_EFFICIENCY range: ++, +, 0, -, -->
--

> <BIOSOLVEIT.INTER_CLASH range: red, yellow, green>
green

> <BIOSOLVEIT.INTRA_CLASH range: red, yellow, green>
red

> <BIOSOLVEIT.LOGP>
1.88818

> <BIOSOLVEIT.MOLECULAR WEIGHT>
406.895

> <BIOSOLVEIT.MOLECULE_CHECKSUM>
OS43NzU5Nzsw

> <BIOSOLVEIT.TORSION_QUALITY range: red, yellow, green, not rotatable>
green

> <BIOSOLVEIT.TPSA>
66.36

$$$$
3E37_ED5_1
foHydescor03232113463D 1   1.00000     0.00000     0
Hydescorer 1.1.0 fol007
 85 88  0  0  0  0            999 V2000
   21.5218  136.3736    0.6584 C   0  0  0  0  0  0  0  0  0  0  0  0
   21.3193  134.9531    0.1568 C   0  0  0  0  0  0  0  0  0  0  0  0
   21.0697  133.9532    1.0913 C   0  0  0  0  0  0  0  0  0  0  0  0
   20.8811  132.6453    0.6576 C   0  0  0  0  0  0  0  0  0  0  0  0
   20.9429  132.3474   -0.6996 C   0  0  0  0  0  0  0  0  0  0  0  0
   21.1927  133.3458   -1.6355 C   0  0  0  0  0  0  0  0  0  0  0  0
   21.3817  134.6543   -1.2013 C   0  0  0  0  0  0  0  0  0  0  0  0
   21.6989  135.9143   -2.4089 S   0  0  0  0  0  0  0  0  0  0  0  0
   22.5635  136.9699   -1.7787 O   0  0  0  0  0  0  0  0  0  0  0  0
   22.4556  135.3278   -3.5696 O   0  0  0  0  0  0  0  0  0  0  0  0
   20.2198  136.6533   -2.9863 N   0  0  0  0  0  0  0  0  0  0  0  0
   19.5308  137.4431   -1.9366 C   0  0  0  0  0  0  0  0  0  0  0  0
   18.5249  136.6444   -1.0844 C   0  0  0  0  0  0  0  0  0  0  0  0
   17.1480  136.8165   -1.5798 N   0  0  0  0  0  0  0  0  0  0  0  0
   16.4830  138.1305   -1.5447 C   0  0  0  0  0  0  0  0  0  0  0  0
   15.7072  138.3239   -0.2697 C   0  0  0  0  0  0  0  0  0  0  0  0
   14.3818  138.0548   -0.0930 C   0  0  0  0  0  0  0  0  0  0  0  0
   14.0822  138.3665    1.2000 N   0  0  0  0  0  0  0  0  0  0  0  0
   15.1727  138.8071    1.7899 C   0  0  0  0  0  0  0  0  0  0  0  0
   16.2065  138.7882    0.9062 N   0  0  0  0  0  0  0  0  0  0  0  0
   17.5943  139.1985    1.1668 C   0  0  0  0  0  0  0  0  0  0  0  0
   16.4014  135.6667   -2.0163 C   0  0  0  0  0  0  0  0  0  0  0  0
   15.2245  135.8494   -2.7352 C   0  0  0  0  0  0  0  0  0  0  0  0
   14.4926  134.7467   -3.1628 C   0  0  0  0  0  0  0  0  0  0  0  0
   14.9531  133.4693   -2.8632 C   0  0  0  0  0  0  0  0  0  0  0  0
   14.1636  132.2557   -3.3259 C   0  0  0  0  0  0  0  0  0  0  0  0
   13.5626  131.3316   -3.6779 N   0  0  0  0  0  0  0  0  0  0  0  0
   16.1297  133.2814   -2.1451 C   0  0  0  0  0  0  0  0  0  0  0  0
   16.8586  134.3869   -1.7187 C   0  0  0  0  0  0  0  0  0  0  0  0
   19.3855  135.6396   -3.6694 C   0  0  0  0  0  0  0  0  0  0  0  0
   18.6686  136.1836   -4.8959 C   0  0  0  0  0  0  0  0  0  0  0  0
   19.6876  136.2987   -6.0199 C   0  0  0  0  0  0  0  0  0  0  0  0
   19.2564  137.4064   -6.9633 C   0  0  0  0  0  0  0  0  0  0  0  0
   17.7863  137.3649   -6.9840 N   0  0  0  0  0  0  0  0  0  0  0  0
   17.0352  136.8583   -8.1060 C   0  0  0  0  0  0  0  0  0  0  0  0
   17.6315  136.5364   -9.1694 O   0  0  0  0  0  0  0  0  0  0  0  0
   15.6400  136.7275   -8.0069 O   0  0  0  0  0  0  0  0  0  0  0  0
   14.7727  136.0891   -8.9558 C   0  0  0  0  0  0  0  0  0  0  0  0
   15.0961  134.5864   -9.0612 C   0  0  0  0  0  0  0  0  0  0  0  0
   14.8833  136.7676  -10.3347 C   0  0  0  0  0  0  0  0  0  0  0  0
   13.3361  136.2519   -8.4369 C   0  0  0  0  0  0  0  0  0  0  0  0
   17.1313  137.8712   -5.7748 C   0  0  0  0  0  0  0  0  0  0  0  0
   18.0150  137.5233   -4.5902 C   0  0  0  0  0  0  0  0  0  0  0  0
   21.6907  136.9804   -0.1183 H   0  0  0  0  0  0  0  0  0  0  0  0
   20.7019  136.6753    1.1450 H   0  0  0  0  0  0  0  0  0  0  0  0
   22.3059  136.3995    1.2785 H   0  0  0  0  0  0  0  0  0  0  0  0
   21.0263  134.1728    2.0659 H   0  0  0  0  0  0  0  0  0  0  0  0
   20.7010  131.9194    1.3214 H   0  0  0  0  0  0  0  0  0  0  0  0
   20.8065  131.4053   -1.0059 H   0  0  0  0  0  0  0  0  0  0  0  0
   21.2359  133.1256   -2.6099 H   0  0  0  0  0  0  0  0  0  0  0  0
   19.0372  138.1899   -2.3825 H   0  0  0  0  0  0  0  0  0  0  0  0
   20.2257  137.8213   -1.3250 H   0  0  0  0  0  0  0  0  0  0  0  0
   18.5731  136.9646   -0.1383 H   0  0  0  0  0  0  0  0  0  0  0  0
   18.7653  135.6744   -1.1208 H   0  0  0  0  0  0  0  0  0  0  0  0
   15.8551  138.1974   -2.3201 H   0  0  0  0  0  0  0  0  0  0  0  0
   17.1767  138.8474   -1.6146 H   0  0  0  0  0  0  0  0  0  0  0  0
   13.7501  137.6972   -0.7809 H   0  0  0  0  0  0  0  0  0  0  0  0
   15.2322  139.1092    2.7413 H   0  0  0  0  0  0  0  0  0  0  0  0
   18.1388  139.0787    0.3367 H   0  0  0  0  0  0  0  0  0  0  0  0
   17.6116  140.1601    1.4410 H   0  0  0  0  0  0  0  0  0  0  0  0
   17.9762  138.6359    1.9001 H   0  0  0  0  0  0  0  0  0  0  0  0
   14.9047  136.7735   -2.9445 H   0  0  0  0  0  0  0  0  0  0  0  0
   13.6454  134.8709   -3.6795 H   0  0  0  0  0  0  0  0  0  0  0  0
   16.4496  132.3572   -1.9366 H   0  0  0  0  0  0  0  0  0  0  0  0
   17.7055  134.2625   -1.2017 H   0  0  0  0  0  0  0  0  0  0  0  0
   18.7001  135.3038   -3.0232 H   0  0  0  0  0  0  0  0  0  0  0  0
   19.9739  134.8830   -3.9544 H   0  0  0  0  0  0  0  0  0  0  0  0
   17.9593  135.5338   -5.1692 H   0  0  0  0  0  0  0  0  0  0  0  0
   19.7364  135.4332   -6.5185 H   0  0  0  0  0  0  0  0  0  0  0  0
   20.5861  136.5143   -5.6376 H   0  0  0  0  0  0  0  0  0  0  0  0
   19.6223  137.2454   -7.8799 H   0  0  0  0  0  0  0  0  0  0  0  0
   19.5751  138.2930   -6.6282 H   0  0  0  0  0  0  0  0  0  0  0  0
   14.4829  134.1593   -9.7257 H   0  0  0  0  0  0  0  0  0  0  0  0
   16.0436  134.4694   -9.3587 H   0  0  0  0  0  0  0  0  0  0  0  0
   14.9716  134.1552   -8.1675 H   0  0  0  0  0  0  0  0  0  0  0  0
   14.2730  136.3099  -10.9813 H   0  0  0  0  0  0  0  0  0  0  0  0
   14.6231  137.7298  -10.2545 H   0  0  0  0  0  0  0  0  0  0  0  0
   15.8256  136.7034  -10.6631 H   0  0  0  0  0  0  0  0  0  0  0  0
   12.7000  135.8176   -9.0747 H   0  0  0  0  0  0  0  0  0  0  0  0
   13.2550  135.8193   -7.5389 H   0  0  0  0  0  0  0  0  0  0  0  0
   13.1179  137.2246   -8.3592 H   0  0  0  0  0  0  0  0  0  0  0  0
   16.2345  137.4418   -5.6682 H   0  0  0  0  0  0  0  0  0  0  0  0
   17.0206  138.8631   -5.8374 H   0  0  0  0  0  0  0  0  0  0  0  0
   17.4628  137.4537   -3.7594 H   0  0  0  0  0  0  0  0  0  0  0  0
   18.7155  138.2263   -4.4670 H   0  0  0  0  0  0  0  0  0  0  0  0
  1  2  1  0  0  0  0
  2  3  2  0  0  0  0
  3  4  1  0  0  0  0
  4  5  2  0  0  0  0
  5  6  1  0  0  0  0
  6  7  2  0  0  0  0
  7  8  1  0  0  0  0
  8  9  2  0  0  0  0
  8 10  2  0  0  0  0
  8 11  1  0  0  0  0
 11 12  1  0  0  0  0
 12 13  1  0  0  0  0
 13 14  1  0  0  0  0
 14 15  1  0  0  0  0
 15 16  1  0  0  0  0
 16 17  2  0  0  0  0
 17 18  1  0  0  0  0
 18 19  2  0  0  0  0
 19 20  1  0  0  0  0
 20 21  1  0  0  0  0
 14 22  1  0  0  0  0
 22 23  2  0  0  0  0
 23 24  1  0  0  0  0
 24 25  2  0  0  0  0
 25 26  1  0  0  0  0
 26 27  3  0  0  0  0
 25 28  1  0  0  0  0
 28 29  2  0  0  0  0
 11 30  1  0  0  0  0
 30 31  1  0  0  0  0
 31 32  1  0  0  0  0
 32 33  1  0  0  0  0
 33 34  1  0  0  0  0
 34 35  1  0  0  0  0
 35 36  2  0  0  0  0
 35 37  1  0  0  0  0
 37 38  1  0  0  0  0
 38 39  1  0  0  0  0
 38 40  1  0  0  0  0
 38 41  1  0  0  0  0
 34 42  1  0  0  0  0
 42 43  1  0  0  0  0
  7  2  1  0  0  0  0
 20 16  1  0  0  0  0
 29 22  1  0  0  0  0
 43 31  1  0  0  0  0
  1 44  1  0  0  0  0
  1 45  1  0  0  0  0
  1 46  1  0  0  0  0
  3 47  1  0  0  0  0
  4 48  1  0  0  0  0
  5 49  1  0  0  0  0
  6 50  1  0  0  0  0
 12 51  1  0  0  0  0
 12 52  1  0  0  0  0
 13 53  1  0  0  0  0
 13 54  1  0  0  0  0
 15 55  1  0  0  0  0
 15 56  1  0  0  0  0
 17 57  1  0  0  0  0
 19 58  1  0  0  0  0
 21 59  1  0  0  0  0
 21 60  1  0  0  0  0
 21 61  1  0  0  0  0
 23 62  1  0  0  0  0
 24 63  1  0  0  0  0
 28 64  1  0  0  0  0
 29 65  1  0  0  0  0
 30 66  1  0  0  0  0
 30 67  1  0  0  0  0
 31 68  1  0  0  0  0
 32 69  1  0  0  0  0
 32 70  1  0  0  0  0
 33 71  1  0  0  0  0
 33 72  1  0  0  0  0
 39 73  1  0  0  0  0
 39 74  1  0  0  0  0
 39 75  1  0  0  0  0
 40 76  1  0  0  0  0
 40 77  1  0  0  0  0
 40 78  1  0  0  0  0
 41 79  1  0  0  0  0
 41 80  1  0  0  0  0
 41 81  1  0  0  0  0
 42 82  1  0  0  0  0
 42 83  1  0  0  0  0
 43 84  1  0  0  0  0
 43 85  1  0  0  0  0
M  END
> <BIOSOLVEIT.HYDE_ESTIMATED_AFFINITY_LOWER_BOUNDARY [nM]>
1303864798.587968

> <BIOSOLVEIT.HYDE_ESTIMATED_AFFINITY_UPPER_BOUNDARY [nM]>
129546676798.507751

> <BIOSOLVEIT.HYDE_LIGAND_EFFICIENCY range: ++, +, 0, -, -->
--

> <BIOSOLVEIT.HYDE_LIGAND_LIPOPHILIC_EFFICIENCY range: ++, +, 0, -, -->
--

> <BIOSOLVEIT.INTER_CLASH range: red, yellow, green>
green

> <BIOSOLVEIT.INTRA_CLASH range: red, yellow, green>
red

> <BIOSOLVEIT.LOGP>
5.5954

> <BIOSOLVEIT.MOLECULAR WEIGHT>
606.787

> <BIOSOLVEIT.MOLECULE_CHECKSUM>
Ni4zNTc3NTsw

> <BIOSOLVEIT.TORSION_QUALITY range: red, yellow, green, not rotatable>
yellow

> <BIOSOLVEIT.TPSA>
111.77

$$$$
3E37_ED5_2
foHydescor03232113463D 1   1.00000     0.00000     0
Hydescorer 1.1.0 fol007
 85 88  0  0  0  0            999 V2000
   21.1681  133.1476   -3.2843 C   0  0  0  0  0  0  0  0  0  0  0  0
   21.1564  133.4356   -1.7918 C   0  0  0  0  0  0  0  0  0  0  0  0
   20.8866  132.3858   -0.9198 C   0  0  0  0  0  0  0  0  0  0  0  0
   20.8700  132.6236    0.4503 C   0  0  0  0  0  0  0  0  0  0  0  0
   21.1217  133.9022    0.9370 C   0  0  0  0  0  0  0  0  0  0  0  0
   21.3915  134.9532    0.0665 C   0  0  0  0  0  0  0  0  0  0  0  0
   21.4077  134.7150   -1.3043 C   0  0  0  0  0  0  0  0  0  0  0  0
   21.7537  136.0672   -2.3992 S   0  0  0  0  0  0  0  0  0  0  0  0
   22.5302  137.1065   -1.6405 O   0  0  0  0  0  0  0  0  0  0  0  0
   22.6098  135.5910   -3.5412 O   0  0  0  0  0  0  0  0  0  0  0  0
   20.2877  136.7908   -3.0273 N   0  0  0  0  0  0  0  0  0  0  0  0
   19.5871  137.6238   -2.0193 C   0  0  0  0  0  0  0  0  0  0  0  0
   18.6082  136.8519   -1.1128 C   0  0  0  0  0  0  0  0  0  0  0  0
   17.2168  137.0082   -1.5715 N   0  0  0  0  0  0  0  0  0  0  0  0
   16.5359  138.3131   -1.5126 C   0  0  0  0  0  0  0  0  0  0  0  0
   15.7515  138.4707   -0.2379 C   0  0  0  0  0  0  0  0  0  0  0  0
   14.4311  138.1723   -0.0710 C   0  0  0  0  0  0  0  0  0  0  0  0
   14.1203  138.4573    1.2256 N   0  0  0  0  0  0  0  0  0  0  0  0
   15.1994  138.9102    1.8270 C   0  0  0  0  0  0  0  0  0  0  0  0
   16.2368  138.9260    0.9473 N   0  0  0  0  0  0  0  0  0  0  0  0
   17.6151  139.3600    1.2202 C   0  0  0  0  0  0  0  0  0  0  0  0
   16.4743  135.8508   -1.9945 C   0  0  0  0  0  0  0  0  0  0  0  0
   15.3195  136.0196   -2.7518 C   0  0  0  0  0  0  0  0  0  0  0  0
   14.5918  134.9094   -3.1668 C   0  0  0  0  0  0  0  0  0  0  0  0
   15.0341  133.6385   -2.8163 C   0  0  0  0  0  0  0  0  0  0  0  0
   14.2490  132.4168   -3.2647 C   0  0  0  0  0  0  0  0  0  0  0  0
   13.6513  131.4866   -3.6060 N   0  0  0  0  0  0  0  0  0  0  0  0
   16.1885  133.4645   -2.0596 C   0  0  0  0  0  0  0  0  0  0  0  0
   16.9133  134.5776   -1.6460 C   0  0  0  0  0  0  0  0  0  0  0  0
   19.4583  135.7559   -3.6840 C   0  0  0  0  0  0  0  0  0  0  0  0
   18.7224  136.2703   -4.9121 C   0  0  0  0  0  0  0  0  0  0  0  0
   19.7263  136.3687   -6.0512 C   0  0  0  0  0  0  0  0  0  0  0  0
   19.2761  137.4541   -7.0113 C   0  0  0  0  0  0  0  0  0  0  0  0
   17.8063  137.4031   -7.0124 N   0  0  0  0  0  0  0  0  0  0  0  0
   17.0443  136.8691   -8.1142 C   0  0  0  0  0  0  0  0  0  0  0  0
   17.6282  136.5372   -9.1814 O   0  0  0  0  0  0  0  0  0  0  0  0
   15.6524  136.7230   -7.9913 O   0  0  0  0  0  0  0  0  0  0  0  0
   14.7756  136.0787   -8.9272 C   0  0  0  0  0  0  0  0  0  0  0  0
   15.1084  134.5786   -9.0386 C   0  0  0  0  0  0  0  0  0  0  0  0
   14.8601  136.7588  -10.3072 C   0  0  0  0  0  0  0  0  0  0  0  0
   13.3459  136.2307   -8.3864 C   0  0  0  0  0  0  0  0  0  0  0  0
   17.1635  137.9300   -5.8055 C   0  0  0  0  0  0  0  0  0  0  0  0
   18.0643  137.6120   -4.6254 C   0  0  0  0  0  0  0  0  0  0  0  0
   21.3744  133.9886   -3.7844 H   0  0  0  0  0  0  0  0  0  0  0  0
   21.8660  132.4603   -3.4856 H   0  0  0  0  0  0  0  0  0  0  0  0
   20.2717  132.8044   -3.5646 H   0  0  0  0  0  0  0  0  0  0  0  0
   20.7063  131.4686   -1.2749 H   0  0  0  0  0  0  0  0  0  0  0  0
   20.6773  131.8756    1.0855 H   0  0  0  0  0  0  0  0  0  0  0  0
   21.1086  134.0676    1.9231 H   0  0  0  0  0  0  0  0  0  0  0  0
   21.5719  135.8702    0.4221 H   0  0  0  0  0  0  0  0  0  0  0  0
   19.0715  138.3307   -2.5035 H   0  0  0  0  0  0  0  0  0  0  0  0
   20.2771  138.0542   -1.4372 H   0  0  0  0  0  0  0  0  0  0  0  0
   18.6844  137.2014   -0.1790 H   0  0  0  0  0  0  0  0  0  0  0  0
   18.8484  135.8813   -1.1260 H   0  0  0  0  0  0  0  0  0  0  0  0
   15.9112  138.3888   -2.2898 H   0  0  0  0  0  0  0  0  0  0  0  0
   17.2213  139.0395   -1.5639 H   0  0  0  0  0  0  0  0  0  0  0  0
   13.8095  137.8129   -0.7670 H   0  0  0  0  0  0  0  0  0  0  0  0
   15.2493  139.1984    2.7833 H   0  0  0  0  0  0  0  0  0  0  0  0
   18.1651  139.2643    0.3906 H   0  0  0  0  0  0  0  0  0  0  0  0
   17.6120  140.3172    1.5095 H   0  0  0  0  0  0  0  0  0  0  0  0
   18.0053  138.7935    1.9461 H   0  0  0  0  0  0  0  0  0  0  0  0
   15.0127  136.9390   -2.9976 H   0  0  0  0  0  0  0  0  0  0  0  0
   13.7605  135.0238   -3.7108 H   0  0  0  0  0  0  0  0  0  0  0  0
   16.4954  132.5449   -1.8145 H   0  0  0  0  0  0  0  0  0  0  0  0
   17.7444  134.4632   -1.1018 H   0  0  0  0  0  0  0  0  0  0  0  0
   18.7836  135.4235   -3.0249 H   0  0  0  0  0  0  0  0  0  0  0  0
   20.0526  135.0012   -3.9620 H   0  0  0  0  0  0  0  0  0  0  0  0
   18.0138  135.6108   -5.1630 H   0  0  0  0  0  0  0  0  0  0  0  0
   19.7745  135.4936   -6.5326 H   0  0  0  0  0  0  0  0  0  0  0  0
   20.6282  136.5977   -5.6848 H   0  0  0  0  0  0  0  0  0  0  0  0
   19.6315  137.2766   -7.9290 H   0  0  0  0  0  0  0  0  0  0  0  0
   19.5933  138.3494   -6.6985 H   0  0  0  0  0  0  0  0  0  0  0  0
   14.4883  134.1474   -9.6940 H   0  0  0  0  0  0  0  0  0  0  0  0
   16.0521  134.4688   -9.3507 H   0  0  0  0  0  0  0  0  0  0  0  0
   15.0008  134.1459   -8.1436 H   0  0  0  0  0  0  0  0  0  0  0  0
   14.2435  136.2969  -10.9447 H   0  0  0  0  0  0  0  0  0  0  0  0
   14.5940  137.7190  -10.2225 H   0  0  0  0  0  0  0  0  0  0  0  0
   15.7979  136.7018  -10.6500 H   0  0  0  0  0  0  0  0  0  0  0  0
   12.7035  135.7920   -9.0147 H   0  0  0  0  0  0  0  0  0  0  0  0
   13.2817  135.7972   -7.4875 H   0  0  0  0  0  0  0  0  0  0  0  0
   13.1220  137.2019   -8.3048 H   0  0  0  0  0  0  0  0  0  0  0  0
   16.2709  137.4974   -5.6788 H   0  0  0  0  0  0  0  0  0  0  0  0
   17.0457  138.9197   -5.8869 H   0  0  0  0  0  0  0  0  0  0  0  0
   17.5231  137.5561   -3.7864 H   0  0  0  0  0  0  0  0  0  0  0  0
   18.7618  138.3216   -4.5256 H   0  0  0  0  0  0  0  0  0  0  0  0
  1  2  1  0  0  0  0
  2  3  2  0  0  0  0
  3  4  1  0  0  0  0
  4  5  2  0  0  0  0
  5  6  1  0  0  0  0
  6  7  2  0  0  0  0
  7  8  1  0  0  0  0
  8  9  2  0  0  0  0
  8 10  2  0  0  0  0
  8 11  1  0  0  0  0
 11 12  1  0  0  0  0
 12 13  1  0  0  0  0
 13 14  1  0  0  0  0
 14 15  1  0  0  0  0
 15 16  1  0  0  0  0
 16 17  2  0  0  0  0
 17 18  1  0  0  0  0
 18 19  2  0  0  0  0
 19 20  1  0  0  0  0
 20 21  1  0  0  0  0
 14 22  1  0  0  0  0
 22 23  2  0  0  0  0
 23 24  1  0  0  0  0
 24 25  2  0  0  0  0
 25 26  1  0  0  0  0
 26 27  3  0  0  0  0
 25 28  1  0  0  0  0
 28 29  2  0  0  0  0
 11 30  1  0  0  0  0
 30 31  1  0  0  0  0
 31 32  1  0  0  0  0
 32 33  1  0  0  0  0
 33 34  1  0  0  0  0
 34 35  1  0  0  0  0
 35 36  2  0  0  0  0
 35 37  1  0  0  0  0
 37 38  1  0  0  0  0
 38 39  1  0  0  0  0
 38 40  1  0  0  0  0
 38 41  1  0  0  0  0
 34 42  1  0  0  0  0
 42 43  1  0  0  0  0
  7  2  1  0  0  0  0
 20 16  1  0  0  0  0
 29 22  1  0  0  0  0
 43 31  1  0  0  0  0
  1 44  1  0  0  0  0
  1 45  1  0  0  0  0
  1 46  1  0  0  0  0
  3 47  1  0  0  0  0
  4 48  1  0  0  0  0
  5 49  1  0  0  0  0
  6 50  1  0  0  0  0
 12 51  1  0  0  0  0
 12 52  1  0  0  0  0
 13 53  1  0  0  0  0
 13 54  1  0  0  0  0
 15 55  1  0  0  0  0
 15 56  1  0  0  0  0
 17 57  1  0  0  0  0
 19 58  1  0  0  0  0
 21 59  1  0  0  0  0
 21 60  1  0  0  0  0
 21 61  1  0  0  0  0
 23 62  1  0  0  0  0
 24 63  1  0  0  0  0
 28 64  1  0  0  0  0
 29 65  1  0  0  0  0
 30 66  1  0  0  0  0
 30 67  1  0  0  0  0
 31 68  1  0  0  0  0
 32 69  1  0  0  0  0
 32 70  1  0  0  0  0
 33 71  1  0  0  0  0
 33 72  1  0  0  0  0
 39 73  1  0  0  0  0
 39 74  1  0  0  0  0
 39 75  1  0  0  0  0
 40 76  1  0  0  0  0
 40 77  1  0  0  0  0
 40 78  1  0  0  0  0
 41 79  1  0  0  0  0
 41 80  1  0  0  0  0
 41 81  1  0  0  0  0
 42 82  1  0  0  0  0
 42 83  1  0  0  0  0
 43 84  1  0  0  0  0
 43 85  1  0  0  0  0
M  END
> <BIOSOLVEIT.HYDE_ESTIMATED_AFFINITY_LOWER_BOUNDARY [nM]>
2112360.941159

> <BIOSOLVEIT.HYDE_ESTIMATED_AFFINITY_UPPER_BOUNDARY [nM]>
209875548.770432

> <BIOSOLVEIT.HYDE_LIGAND_EFFICIENCY range: ++, +, 0, -, -->
--

> <BIOSOLVEIT.HYDE_LIGAND_LIPOPHILIC_EFFICIENCY range: ++, +, 0, -, -->
--

> <BIOSOLVEIT.INTER_CLASH range: red, yellow, green>
green

> <BIOSOLVEIT.INTRA_CLASH range: red, yellow, green>
yellow

> <BIOSOLVEIT.LOGP>
5.5954

> <BIOSOLVEIT.MOLECULAR WEIGHT>
606.787

> <BIOSOLVEIT.MOLECULE_CHECKSUM>
LTkuNTcwMjU7MC4yMjI1NjQ=

> <BIOSOLVEIT.TORSION_QUALITY range: red, yellow, green, not rotatable>
yellow

> <BIOSOLVEIT.TPSA>
111.77

$$$$
3E37_ED5_3
foHydescor03232113463D 1   1.00000     0.00000     0
Hydescorer 1.1.0 fol007
 85 88  0  0  0  0            999 V2000
   19.3380  137.8229   -4.3113 C   0  0  0  0  0  0  0  0  0  0  0  0
   20.2620  137.8412   -3.1045 C   0  0  0  0  0  0  0  0  0  0  0  0
   20.0216  138.7775   -2.1041 C   0  0  0  0  0  0  0  0  0  0  0  0
   20.8528  138.8146   -0.9899 C   0  0  0  0  0  0  0  0  0  0  0  0
   21.9131  137.9205   -0.8836 C   0  0  0  0  0  0  0  0  0  0  0  0
   22.1552  136.9836   -1.8830 C   0  0  0  0  0  0  0  0  0  0  0  0
   21.3234  136.9469   -2.9979 C   0  0  0  0  0  0  0  0  0  0  0  0
   21.6471  135.7455   -4.2623 S   0  0  0  0  0  0  0  0  0  0  0  0
   21.4105  136.3877   -5.6002 O   0  0  0  0  0  0  0  0  0  0  0  0
   23.0887  135.3188   -4.2015 O   0  0  0  0  0  0  0  0  0  0  0  0
   20.6127  134.3406   -4.1089 N   0  0  0  0  0  0  0  0  0  0  0  0
   19.1712  134.6883   -4.1486 C   0  0  0  0  0  0  0  0  0  0  0  0
   18.3178  133.7958   -5.0713 C   0  0  0  0  0  0  0  0  0  0  0  0
   16.9415  134.3084   -5.1889 N   0  0  0  0  0  0  0  0  0  0  0  0
   16.6591  135.5902   -5.8575 C   0  0  0  0  0  0  0  0  0  0  0  0
   16.1511  135.3830   -7.2589 C   0  0  0  0  0  0  0  0  0  0  0  0
   16.1538  134.2030   -7.9428 C   0  0  0  0  0  0  0  0  0  0  0  0
   15.6073  134.4520   -9.1668 N   0  0  0  0  0  0  0  0  0  0  0  0
   15.2843  135.7259   -9.2320 C   0  0  0  0  0  0  0  0  0  0  0  0
   15.6027  136.3357   -8.0585 N   0  0  0  0  0  0  0  0  0  0  0  0
   15.4025  137.7529   -7.7208 C   0  0  0  0  0  0  0  0  0  0  0  0
   15.8913  133.6160   -4.5739 C   0  0  0  0  0  0  0  0  0  0  0  0
   14.6207  134.1823   -4.5515 C   0  0  0  0  0  0  0  0  0  0  0  0
   13.5686  133.5057   -3.9435 C   0  0  0  0  0  0  0  0  0  0  0  0
   13.8052  132.2640   -3.3642 C   0  0  0  0  0  0  0  0  0  0  0  0
   12.7243  131.5532   -2.7331 C   0  0  0  0  0  0  0  0  0  0  0  0
   11.8554  130.9818   -2.2259 N   0  0  0  0  0  0  0  0  0  0  0  0
   15.0737  131.6933   -3.3845 C   0  0  0  0  0  0  0  0  0  0  0  0
   16.1236  132.3734   -3.9932 C   0  0  0  0  0  0  0  0  0  0  0  0
   21.0388  133.5276   -2.9479 C   0  0  0  0  0  0  0  0  0  0  0  0
   19.9537  133.4170   -1.8533 C   0  0  0  0  0  0  0  0  0  0  0  0
   20.3867  132.3412   -0.8662 C   0  0  0  0  0  0  0  0  0  0  0  0
   19.4275  132.2110    0.3078 C   0  0  0  0  0  0  0  0  0  0  0  0
   19.0548  133.5230    0.8632 N   0  0  0  0  0  0  0  0  0  0  0  0
   18.8051  133.6143    2.2356 C   0  0  0  0  0  0  0  0  0  0  0  0
   18.7206  132.5660    2.9316 O   0  0  0  0  0  0  0  0  0  0  0  0
   18.6486  134.8768    2.8318 O   0  0  0  0  0  0  0  0  0  0  0  0
   19.6557  135.6202    3.5340 C   0  0  0  0  0  0  0  0  0  0  0  0
   20.8541  135.9154    2.6120 C   0  0  0  0  0  0  0  0  0  0  0  0
   20.1126  134.8597    4.7937 C   0  0  0  0  0  0  0  0  0  0  0  0
   19.0196  136.9513    3.9619 C   0  0  0  0  0  0  0  0  0  0  0  0
   18.9372  134.7428    0.0467 C   0  0  0  0  0  0  0  0  0  0  0  0
   19.9160  134.7501   -1.1197 C   0  0  0  0  0  0  0  0  0  0  0  0
   19.6289  137.1044   -4.9430 H   0  0  0  0  0  0  0  0  0  0  0  0
   18.4011  137.6436   -4.0111 H   0  0  0  0  0  0  0  0  0  0  0  0
   19.3760  138.7088   -4.7737 H   0  0  0  0  0  0  0  0  0  0  0  0
   19.2580  139.4181   -2.1855 H   0  0  0  0  0  0  0  0  0  0  0  0
   20.6883  139.4839   -0.2653 H   0  0  0  0  0  0  0  0  0  0  0  0
   22.5078  137.9516   -0.0801 H   0  0  0  0  0  0  0  0  0  0  0  0
   22.9188  136.3432   -1.8011 H   0  0  0  0  0  0  0  0  0  0  0  0
   19.0874  135.6332   -4.4650 H   0  0  0  0  0  0  0  0  0  0  0  0
   18.8074  134.6141   -3.2202 H   0  0  0  0  0  0  0  0  0  0  0  0
   18.2895  132.8702   -4.6939 H   0  0  0  0  0  0  0  0  0  0  0  0
   18.7355  133.7728   -5.9795 H   0  0  0  0  0  0  0  0  0  0  0  0
   17.5003  136.1297   -5.8935 H   0  0  0  0  0  0  0  0  0  0  0  0
   15.9677  136.0853   -5.3314 H   0  0  0  0  0  0  0  0  0  0  0  0
   16.4922  133.3228   -7.6100 H   0  0  0  0  0  0  0  0  0  0  0  0
   14.8688  136.1763  -10.0223 H   0  0  0  0  0  0  0  0  0  0  0  0
   15.7284  137.9232   -6.7909 H   0  0  0  0  0  0  0  0  0  0  0  0
   15.9137  138.3240   -8.3631 H   0  0  0  0  0  0  0  0  0  0  0  0
   14.4292  137.9751   -7.7789 H   0  0  0  0  0  0  0  0  0  0  0  0
   14.4639  135.0757   -4.9724 H   0  0  0  0  0  0  0  0  0  0  0  0
   12.6530  133.9074   -3.9233 H   0  0  0  0  0  0  0  0  0  0  0  0
   15.2299  130.7995   -2.9640 H   0  0  0  0  0  0  0  0  0  0  0  0
   17.0392  131.9717   -4.0131 H   0  0  0  0  0  0  0  0  0  0  0  0
   21.8532  133.9476   -2.5473 H   0  0  0  0  0  0  0  0  0  0  0  0
   21.2619  132.6072   -3.2688 H   0  0  0  0  0  0  0  0  0  0  0  0
   19.0622  133.2010   -2.2518 H   0  0  0  0  0  0  0  0  0  0  0  0
   21.2938  132.5737   -0.5154 H   0  0  0  0  0  0  0  0  0  0  0  0
   20.4291  131.4644   -1.3451 H   0  0  0  0  0  0  0  0  0  0  0  0
   19.8664  131.6696    1.0250 H   0  0  0  0  0  0  0  0  0  0  0  0
   18.5992  131.7444   -0.0021 H   0  0  0  0  0  0  0  0  0  0  0  0
   21.5442  136.4330    3.1179 H   0  0  0  0  0  0  0  0  0  0  0  0
   21.2503  135.0540    2.2941 H   0  0  0  0  0  0  0  0  0  0  0  0
   20.5458  136.4509    1.8257 H   0  0  0  0  0  0  0  0  0  0  0  0
   20.8130  135.3922    5.2689 H   0  0  0  0  0  0  0  0  0  0  0  0
   19.3304  134.7206    5.4011 H   0  0  0  0  0  0  0  0  0  0  0  0
   20.4908  133.9726    4.5287 H   0  0  0  0  0  0  0  0  0  0  0  0
   19.6942  137.4994    4.4565 H   0  0  0  0  0  0  0  0  0  0  0  0
   18.7143  137.4507    3.1512 H   0  0  0  0  0  0  0  0  0  0  0  0
   18.2364  136.7705    4.5567 H   0  0  0  0  0  0  0  0  0  0  0  0
   19.1204  135.5370    0.6260 H   0  0  0  0  0  0  0  0  0  0  0  0
   18.0062  134.8007   -0.3137 H   0  0  0  0  0  0  0  0  0  0  0  0
   20.8312  134.9502   -0.7698 H   0  0  0  0  0  0  0  0  0  0  0  0
   19.6422  135.4639   -1.7643 H   0  0  0  0  0  0  0  0  0  0  0  0
  1  2  1  0  0  0  0
  2  3  2  0  0  0  0
  3  4  1  0  0  0  0
  4  5  2  0  0  0  0
  5  6  1  0  0  0  0
  6  7  2  0  0  0  0
  7  8  1  0  0  0  0
  8  9  2  0  0  0  0
  8 10  2  0  0  0  0
  8 11  1  0  0  0  0
 11 12  1  0  0  0  0
 12 13  1  0  0  0  0
 13 14  1  0  0  0  0
 14 15  1  0  0  0  0
 15 16  1  0  0  0  0
 16 17  2  0  0  0  0
 17 18  1  0  0  0  0
 18 19  2  0  0  0  0
 19 20  1  0  0  0  0
 20 21  1  0  0  0  0
 14 22  1  0  0  0  0
 22 23  2  0  0  0  0
 23 24  1  0  0  0  0
 24 25  2  0  0  0  0
 25 26  1  0  0  0  0
 26 27  3  0  0  0  0
 25 28  1  0  0  0  0
 28 29  2  0  0  0  0
 11 30  1  0  0  0  0
 30 31  1  0  0  0  0
 31 32  1  0  0  0  0
 32 33  1  0  0  0  0
 33 34  1  0  0  0  0
 34 35  1  0  0  0  0
 35 36  2  0  0  0  0
 35 37  1  0  0  0  0
 37 38  1  0  0  0  0
 38 39  1  0  0  0  0
 38 40  1  0  0  0  0
 38 41  1  0  0  0  0
 34 42  1  0  0  0  0
 42 43  1  0  0  0  0
  7  2  1  0  0  0  0
 20 16  1  0  0  0  0
 29 22  1  0  0  0  0
 43 31  1  0  0  0  0
  1 44  1  0  0  0  0
  1 45  1  0  0  0  0
  1 46  1  0  0  0  0
  3 47  1  0  0  0  0
  4 48  1  0  0  0  0
  5 49  1  0  0  0  0
  6 50  1  0  0  0  0
 12 51  1  0  0  0  0
 12 52  1  0  0  0  0
 13 53  1  0  0  0  0
 13 54  1  0  0  0  0
 15 55  1  0  0  0  0
 15 56  1  0  0  0  0
 17 57  1  0  0  0  0
 19 58  1  0  0  0  0
 21 59  1  0  0  0  0
 21 60  1  0  0  0  0
 21 61  1  0  0  0  0
 23 62  1  0  0  0  0
 24 63  1  0  0  0  0
 28 64  1  0  0  0  0
 29 65  1  0  0  0  0
 30 66  1  0  0  0  0
 30 67  1  0  0  0  0
 31 68  1  0  0  0  0
 32 69  1  0  0  0  0
 32 70  1  0  0  0  0
 33 71  1  0  0  0  0
 33 72  1  0  0  0  0
 39 73  1  0  0  0  0
 39 74  1  0  0  0  0
 39 75  1  0  0  0  0
 40 76  1  0  0  0  0
 40 77  1  0  0  0  0
 40 78  1  0  0  0  0
 41 79  1  0  0  0  0
 41 80  1  0  0  0  0
 41 81  1  0  0  0  0
 42 82  1  0  0  0  0
 42 83  1  0  0  0  0
 43 84  1  0  0  0  0
 43 85  1  0  0  0  0
M  END
> <BIOSOLVEIT.HYDE_ESTIMATED_AFFINITY_LOWER_BOUNDARY [nM]>
8584056.811963

> <BIOSOLVEIT.HYDE_ESTIMATED_AFFINITY_UPPER_BOUNDARY [nM]>
852876797.229094

> <BIOSOLVEIT.HYDE_LIGAND_EFFICIENCY range: ++, +, 0, -, -->
--

> <BIOSOLVEIT.HYDE_LIGAND_LIPOPHILIC_EFFICIENCY range: ++, +, 0, -, -->
--

> <BIOSOLVEIT.INTER_CLASH range: red, yellow, green>
green

> <BIOSOLVEIT.INTRA_CLASH range: red, yellow, green>
yellow

> <BIOSOLVEIT.LOGP>
5.5954

> <BIOSOLVEIT.MOLECULAR WEIGHT>
606.787

> <BIOSOLVEIT.MOLECULE_CHECKSUM>
LTYuMDk0NTswLjE0MTczMw==

> <BIOSOLVEIT.TORSION_QUALITY range: red, yellow, green, not rotatable>
red

> <BIOSOLVEIT.TPSA>
111.77

$$$$
2IEJ_FII_1
foHydescor03232113463D 1   1.00000     0.00000     0
Hydescorer 1.1.0 fol007
 52 51  0  0  0  0            999 V2000
   13.5540  133.5253   -4.2379 C   0  0  0  0  0  0  0  0  0  0  0  0
   13.9847  134.9694   -4.3398 C   0  0  0  0  0  0  0  0  0  0  0  0
   13.7933  135.7120   -5.6369 C   0  0  0  0  0  0  0  0  0  0  0  0
   14.5567  135.6219   -3.3042 C   0  0  0  0  0  0  0  0  0  0  0  0
   14.8312  135.0093   -1.9510 C   0  0  0  0  0  0  0  0  0  0  0  0
   16.2460  135.3393   -1.4543 C   0  0  0  0  0  0  0  0  0  0  0  0
   17.1543  134.1263   -1.4762 C   0  0  0  0  0  0  0  0  0  0  0  0
   17.8358  133.6962   -0.1988 C   0  0  0  0  0  0  0  0  0  0  0  0
   17.3395  133.4678   -2.6421 C   0  0  0  0  0  0  0  0  0  0  0  0
   18.2131  132.2471   -2.8155 C   0  0  0  0  0  0  0  0  0  0  0  0
   19.3813  132.4983   -3.7841 C   0  0  0  0  0  0  0  0  0  0  0  0
   20.3519  133.5369   -3.2555 C   0  0  0  0  0  0  0  0  0  0  0  0
   21.1026  133.2597   -1.9736 C   0  0  0  0  0  0  0  0  0  0  0  0
   20.5358  134.6811   -3.9513 C   0  0  0  0  0  0  0  0  0  0  0  0
   21.4690  135.7827   -3.5299 C   0  0  0  0  0  0  0  0  0  0  0  0
   20.7132  136.9029   -3.1265 O   0  0  0  0  0  0  0  0  0  0  0  0
   21.5845  137.8396   -2.6674 N   0  0  0  0  0  0  0  0  0  0  0  0
   21.8641  137.9602   -1.2679 C   0  0  0  0  0  0  0  0  0  0  0  0
   22.6763  138.8378   -0.8711 O   0  0  0  0  0  0  0  0  0  0  0  0
   21.1716  137.0880   -0.2627 C   0  0  0  0  0  0  0  0  0  0  0  0
   19.5436  137.7788    0.1602 P   0  0  0  0  0  0  0  0  0  0  0  0
   19.7185  139.1375    0.7990 O   0  0  0  0  0  0  0  0  0  0  0  0
   18.5986  137.9323   -1.2337 O   0  5  0  0  0  0  0  0  0  0  0  0
   18.7680  136.7445    1.2498 O   0  5  0  0  0  0  0  0  0  0  0  0
   13.7490  133.1833   -3.3186 H   0  0  0  0  0  0  0  0  0  0  0  0
   12.5727  133.4566   -4.4179 H   0  0  0  0  0  0  0  0  0  0  0  0
   14.0551  132.9798   -4.9097 H   0  0  0  0  0  0  0  0  0  0  0  0
   14.1279  136.6491   -5.5370 H   0  0  0  0  0  0  0  0  0  0  0  0
   14.3036  135.2515   -6.3631 H   0  0  0  0  0  0  0  0  0  0  0  0
   12.8213  135.7283   -5.8713 H   0  0  0  0  0  0  0  0  0  0  0  0
   14.8166  136.5774   -3.4432 H   0  0  0  0  0  0  0  0  0  0  0  0
   14.7353  134.0163   -2.0195 H   0  0  0  0  0  0  0  0  0  0  0  0
   14.1661  135.3640   -1.2939 H   0  0  0  0  0  0  0  0  0  0  0  0
   16.1872  135.6814   -0.5165 H   0  0  0  0  0  0  0  0  0  0  0  0
   16.6379  136.0464   -2.0430 H   0  0  0  0  0  0  0  0  0  0  0  0
   18.3961  132.8872   -0.3760 H   0  0  0  0  0  0  0  0  0  0  0  0
   18.4175  134.4381    0.1348 H   0  0  0  0  0  0  0  0  0  0  0  0
   17.1448  133.4787    0.4907 H   0  0  0  0  0  0  0  0  0  0  0  0
   16.8628  133.8144   -3.4499 H   0  0  0  0  0  0  0  0  0  0  0  0
   17.6537  131.4995   -3.1734 H   0  0  0  0  0  0  0  0  0  0  0  0
   18.5845  131.9882   -1.9239 H   0  0  0  0  0  0  0  0  0  0  0  0
   19.0126  132.8172   -4.6573 H   0  0  0  0  0  0  0  0  0  0  0  0
   19.8738  131.6394   -3.9241 H   0  0  0  0  0  0  0  0  0  0  0  0
   21.6975  134.0350   -1.7615 H   0  0  0  0  0  0  0  0  0  0  0  0
   20.4502  133.1263   -1.2275 H   0  0  0  0  0  0  0  0  0  0  0  0
   21.6566  132.4346   -2.0836 H   0  0  0  0  0  0  0  0  0  0  0  0
   20.0193  134.8026   -4.7988 H   0  0  0  0  0  0  0  0  0  0  0  0
   22.0567  136.0353   -4.2986 H   0  0  0  0  0  0  0  0  0  0  0  0
   22.0343  135.4686   -2.7672 H   0  0  0  0  0  0  0  0  0  0  0  0
   22.0364  138.4527   -3.3153 H   0  0  0  0  0  0  0  0  0  0  0  0
   21.7304  137.0309    0.5646 H   0  0  0  0  0  0  0  0  0  0  0  0
   21.0515  136.1729   -0.6477 H   0  0  0  0  0  0  0  0  0  0  0  0
  1  2  1  0  0  0  0
  2  3  1  0  0  0  0
  2  4  2  0  0  0  0
  4  5  1  0  0  0  0
  5  6  1  0  0  0  0
  6  7  1  0  0  0  0
  7  8  1  0  0  0  0
  7  9  2  0  0  0  0
  9 10  1  0  0  0  0
 10 11  1  0  0  0  0
 11 12  1  0  0  0  0
 12 13  1  0  0  0  0
 12 14  2  0  0  0  0
 14 15  1  0  0  0  0
 15 16  1  0  0  0  0
 16 17  1  0  0  0  0
 17 18  1  0  0  0  0
 18 19  2  0  0  0  0
 18 20  1  0  0  0  0
 20 21  1  0  0  0  0
 21 22  2  0  0  0  0
 21 23  1  0  0  0  0
 21 24  1  0  0  0  0
  1 25  1  0  0  0  0
  1 26  1  0  0  0  0
  1 27  1  0  0  0  0
  3 28  1  0  0  0  0
  3 29  1  0  0  0  0
  3 30  1  0  0  0  0
  4 31  1  0  0  0  0
  5 32  1  0  0  0  0
  5 33  1  0  0  0  0
  6 34  1  0  0  0  0
  6 35  1  0  0  0  0
  8 36  1  0  0  0  0
  8 37  1  0  0  0  0
  8 38  1  0  0  0  0
  9 39  1  0  0  0  0
 10 40  1  0  0  0  0
 10 41  1  0  0  0  0
 11 42  1  0  0  0  0
 11 43  1  0  0  0  0
 13 44  1  0  0  0  0
 13 45  1  0  0  0  0
 13 46  1  0  0  0  0
 14 47  1  0  0  0  0
 15 48  1  0  0  0  0
 15 49  1  0  0  0  0
 17 50  1  0  0  0  0
 20 51  1  0  0  0  0
 20 52  1  0  0  0  0
M  CHG  2  23  -1  24  -1
M  END
> <BIOSOLVEIT.HYDE_ESTIMATED_AFFINITY_LOWER_BOUNDARY [nM]>
11012.351822

> <BIOSOLVEIT.HYDE_ESTIMATED_AFFINITY_UPPER_BOUNDARY [nM]>
1094142.263685

> <BIOSOLVEIT.HYDE_LIGAND_EFFICIENCY range: ++, +, 0, -, -->
-

> <BIOSOLVEIT.HYDE_LIGAND_LIPOPHILIC_EFFICIENCY range: ++, +, 0, -, -->
--

> <BIOSOLVEIT.INTER_CLASH range: red, yellow, green>
green

> <BIOSOLVEIT.INTRA_CLASH range: red, yellow, green>
green

> <BIOSOLVEIT.LOGP>
2.3671

> <BIOSOLVEIT.MOLECULAR WEIGHT>
357.384

> <BIOSOLVEIT.MOLECULE_CHECKSUM>
LTIyLjYwMTswLjk0MTcwOA==

> <BIOSOLVEIT.TORSION_QUALITY range: red, yellow, green, not rotatable>
red

> <BIOSOLVEIT.TPSA>
101.52

$$$$
2IEJ_FII_2
foHydescor03232113463D 1   1.00000     0.00000     0
Hydescorer 1.1.0 fol007
 52 51  0  0  0  0            999 V2000
   15.8838  137.4587    2.2432 C   0  0  0  0  0  0  0  0  0  0  0  0
   15.1391  137.3671    0.9323 C   0  0  0  0  0  0  0  0  0  0  0  0
   14.0295  138.3434    0.6385 C   0  0  0  0  0  0  0  0  0  0  0  0
   15.4235  136.4211    0.0105 C   0  0  0  0  0  0  0  0  0  0  0  0
   16.4913  135.3644    0.1675 C   0  0  0  0  0  0  0  0  0  0  0  0
   17.2068  135.0779   -1.1605 C   0  0  0  0  0  0  0  0  0  0  0  0
   16.7056  133.8057   -1.8141 C   0  0  0  0  0  0  0  0  0  0  0  0
   17.4892  132.5278   -1.6298 C   0  0  0  0  0  0  0  0  0  0  0  0
   15.5758  133.8512   -2.5546 C   0  0  0  0  0  0  0  0  0  0  0  0
   14.9588  132.6675   -3.2629 C   0  0  0  0  0  0  0  0  0  0  0  0
   13.6964  133.0531   -4.0527 C   0  0  0  0  0  0  0  0  0  0  0  0
   14.0273  133.7109   -5.3785 C   0  0  0  0  0  0  0  0  0  0  0  0
   13.7978  135.1956   -5.5425 C   0  0  0  0  0  0  0  0  0  0  0  0
   14.5350  132.9576   -6.3794 C   0  0  0  0  0  0  0  0  0  0  0  0
   14.9016  133.4944   -7.7356 C   0  0  0  0  0  0  0  0  0  0  0  0
   16.3037  133.4629   -7.8842 O   0  0  0  0  0  0  0  0  0  0  0  0
   16.7253  134.7442   -8.0516 N   0  0  0  0  0  0  0  0  0  0  0  0
   17.5277  135.3900   -7.0564 C   0  0  0  0  0  0  0  0  0  0  0  0
   17.9041  136.5785   -7.2386 O   0  0  0  0  0  0  0  0  0  0  0  0
   17.8897  134.6891   -5.7803 C   0  0  0  0  0  0  0  0  0  0  0  0
   18.9572  135.7478   -4.7574 P   0  0  0  0  0  0  0  0  0  0  0  0
   20.1331  136.2273   -5.5772 O   0  0  0  0  0  0  0  0  0  0  0  0
   18.0837  137.0828   -4.1961 O   0  5  0  0  0  0  0  0  0  0  0  0
   19.5227  134.8554   -3.4374 O   0  5  0  0  0  0  0  0  0  0  0  0
   16.5827  136.7444    2.2802 H   0  0  0  0  0  0  0  0  0  0  0  0
   16.3196  138.3557    2.3170 H   0  0  0  0  0  0  0  0  0  0  0  0
   15.2420  137.3365    3.0003 H   0  0  0  0  0  0  0  0  0  0  0  0
   13.6432  138.1475   -0.2628 H   0  0  0  0  0  0  0  0  0  0  0  0
   13.3157  138.2557    1.3333 H   0  0  0  0  0  0  0  0  0  0  0  0
   14.3933  139.2748    0.6501 H   0  0  0  0  0  0  0  0  0  0  0  0
   14.8896  136.4205   -0.8350 H   0  0  0  0  0  0  0  0  0  0  0  0
   16.0664  134.5206    0.4953 H   0  0  0  0  0  0  0  0  0  0  0  0
   17.1641  135.6804    0.8364 H   0  0  0  0  0  0  0  0  0  0  0  0
   18.1872  134.9861   -0.9856 H   0  0  0  0  0  0  0  0  0  0  0  0
   17.0497  135.8442   -1.7835 H   0  0  0  0  0  0  0  0  0  0  0  0
   17.0332  131.7838   -2.1184 H   0  0  0  0  0  0  0  0  0  0  0  0
   18.4131  132.6480   -1.9930 H   0  0  0  0  0  0  0  0  0  0  0  0
   17.5400  132.3053   -0.6562 H   0  0  0  0  0  0  0  0  0  0  0  0
   15.1137  134.7339   -2.6401 H   0  0  0  0  0  0  0  0  0  0  0  0
   14.7139  131.9772   -2.5821 H   0  0  0  0  0  0  0  0  0  0  0  0
   15.6311  132.2861   -3.8973 H   0  0  0  0  0  0  0  0  0  0  0  0
   13.1553  133.6900   -3.5037 H   0  0  0  0  0  0  0  0  0  0  0  0
   13.1616  132.2265   -4.2282 H   0  0  0  0  0  0  0  0  0  0  0  0
   14.0629  135.4739   -6.4657 H   0  0  0  0  0  0  0  0  0  0  0  0
   12.8300  135.4013   -5.3972 H   0  0  0  0  0  0  0  0  0  0  0  0
   14.3487  135.6940   -4.8731 H   0  0  0  0  0  0  0  0  0  0  0  0
   14.6757  131.9826   -6.2074 H   0  0  0  0  0  0  0  0  0  0  0  0
   14.5774  134.4365   -7.8211 H   0  0  0  0  0  0  0  0  0  0  0  0
   14.4775  132.9304   -8.4441 H   0  0  0  0  0  0  0  0  0  0  0  0
   16.4719  135.2426   -8.8807 H   0  0  0  0  0  0  0  0  0  0  0  0
   18.3752  133.8418   -5.9959 H   0  0  0  0  0  0  0  0  0  0  0  0
   17.0547  134.4750   -5.2734 H   0  0  0  0  0  0  0  0  0  0  0  0
  1  2  1  0  0  0  0
  2  3  1  0  0  0  0
  2  4  2  0  0  0  0
  4  5  1  0  0  0  0
  5  6  1  0  0  0  0
  6  7  1  0  0  0  0
  7  8  1  0  0  0  0
  7  9  2  0  0  0  0
  9 10  1  0  0  0  0
 10 11  1  0  0  0  0
 11 12  1  0  0  0  0
 12 13  1  0  0  0  0
 12 14  2  0  0  0  0
 14 15  1  0  0  0  0
 15 16  1  0  0  0  0
 16 17  1  0  0  0  0
 17 18  1  0  0  0  0
 18 19  2  0  0  0  0
 18 20  1  0  0  0  0
 20 21  1  0  0  0  0
 21 22  2  0  0  0  0
 21 23  1  0  0  0  0
 21 24  1  0  0  0  0
  1 25  1  0  0  0  0
  1 26  1  0  0  0  0
  1 27  1  0  0  0  0
  3 28  1  0  0  0  0
  3 29  1  0  0  0  0
  3 30  1  0  0  0  0
  4 31  1  0  0  0  0
  5 32  1  0  0  0  0
  5 33  1  0  0  0  0
  6 34  1  0  0  0  0
  6 35  1  0  0  0  0
  8 36  1  0  0  0  0
  8 37  1  0  0  0  0
  8 38  1  0  0  0  0
  9 39  1  0  0  0  0
 10 40  1  0  0  0  0
 10 41  1  0  0  0  0
 11 42  1  0  0  0  0
 11 43  1  0  0  0  0
 13 44  1  0  0  0  0
 13 45  1  0  0  0  0
 13 46  1  0  0  0  0
 14 47  1  0  0  0  0
 15 48  1  0  0  0  0
 15 49  1  0  0  0  0
 17 50  1  0  0  0  0
 20 51  1  0  0  0  0
 20 52  1  0  0  0  0
M  CHG  2  23  -1  24  -1
M  END
> <BIOSOLVEIT.HYDE_ESTIMATED_AFFINITY_LOWER_BOUNDARY [nM]>
1710.061722

> <BIOSOLVEIT.HYDE_ESTIMATED_AFFINITY_UPPER_BOUNDARY [nM]>
169904.742743

> <BIOSOLVEIT.HYDE_LIGAND_EFFICIENCY range: ++, +, 0, -, -->
-

> <BIOSOLVEIT.HYDE_LIGAND_LIPOPHILIC_EFFICIENCY range: ++, +, 0, -, -->
-

> <BIOSOLVEIT.INTER_CLASH range: red, yellow, green>
green

> <BIOSOLVEIT.INTRA_CLASH range: red, yellow, green>
green

> <BIOSOLVEIT.LOGP>
2.3671

> <BIOSOLVEIT.MOLECULAR WEIGHT>
357.384

> <BIOSOLVEIT.MOLECULE_CHECKSUM>
LTI3LjIxODsxLjEzNDA4

> <BIOSOLVEIT.TORSION_QUALITY range: red, yellow, green, not rotatable>
yellow

> <BIOSOLVEIT.TPSA>
101.52

$$$$
2IEJ_FII_3
foHydescor03232113463D 1   1.00000     0.00000     0
Hydescorer 1.1.0 fol007
 52 51  0  0  0  0            999 V2000
   18.0966  135.9528    1.3192 C   0  0  0  0  0  0  0  0  0  0  0  0
   16.6782  136.4709    1.3528 C   0  0  0  0  0  0  0  0  0  0  0  0
   16.1949  137.2348    2.5585 C   0  0  0  0  0  0  0  0  0  0  0  0
   15.8126  136.2576    0.3376 C   0  0  0  0  0  0  0  0  0  0  0  0
   16.1420  135.4963   -0.9247 C   0  0  0  0  0  0  0  0  0  0  0  0
   15.5257  136.1590   -2.1651 C   0  0  0  0  0  0  0  0  0  0  0  0
   14.5254  135.2541   -2.8561 C   0  0  0  0  0  0  0  0  0  0  0  0
   13.6934  135.8085   -3.9881 C   0  0  0  0  0  0  0  0  0  0  0  0
   14.3964  133.9769   -2.4328 C   0  0  0  0  0  0  0  0  0  0  0  0
   13.4441  132.9631   -3.0235 C   0  0  0  0  0  0  0  0  0  0  0  0
   14.1175  132.0816   -4.0893 C   0  0  0  0  0  0  0  0  0  0  0  0
   14.9247  132.8963   -5.0814 C   0  0  0  0  0  0  0  0  0  0  0  0
   16.4209  133.0072   -4.9000 C   0  0  0  0  0  0  0  0  0  0  0  0
   14.2902  133.4925   -6.1153 C   0  0  0  0  0  0  0  0  0  0  0  0
   14.9804  134.3238   -7.1614 C   0  0  0  0  0  0  0  0  0  0  0  0
   16.2599  133.7865   -7.4121 O   0  0  0  0  0  0  0  0  0  0  0  0
   16.8244  134.5227   -8.4055 N   0  0  0  0  0  0  0  0  0  0  0  0
   17.7737  135.5532   -8.1081 C   0  0  0  0  0  0  0  0  0  0  0  0
   18.2808  136.2197   -9.0495 O   0  0  0  0  0  0  0  0  0  0  0  0
   18.1402  135.8818   -6.6909 C   0  0  0  0  0  0  0  0  0  0  0  0
   19.2794  137.2983   -6.6438 P   0  0  0  0  0  0  0  0  0  0  0  0
   20.6838  136.8315   -6.9520 O   0  0  0  0  0  0  0  0  0  0  0  0
   18.8114  138.4575   -7.7826 O   0  5  0  0  0  0  0  0  0  0  0  0
   19.2454  137.9865   -5.0999 O   0  5  0  0  0  0  0  0  0  0  0  0
   18.2556  135.4724    0.4567 H   0  0  0  0  0  0  0  0  0  0  0  0
   18.7336  136.7199    1.3959 H   0  0  0  0  0  0  0  0  0  0  0  0
   18.2397  135.3232    2.0828 H   0  0  0  0  0  0  0  0  0  0  0  0
   15.2417  137.5047    2.4220 H   0  0  0  0  0  0  0  0  0  0  0  0
   16.2642  136.6549    3.3702 H   0  0  0  0  0  0  0  0  0  0  0  0
   16.7580  138.0517    2.6833 H   0  0  0  0  0  0  0  0  0  0  0  0
   14.8890  136.6300    0.4283 H   0  0  0  0  0  0  0  0  0  0  0  0
   15.7858  134.5654   -0.8439 H   0  0  0  0  0  0  0  0  0  0  0  0
   17.1355  135.4647   -1.0341 H   0  0  0  0  0  0  0  0  0  0  0  0
   16.2576  136.3820   -2.8089 H   0  0  0  0  0  0  0  0  0  0  0  0
   15.0610  136.9989   -1.8848 H   0  0  0  0  0  0  0  0  0  0  0  0
   13.0866  135.0941   -4.3368 H   0  0  0  0  0  0  0  0  0  0  0  0
   13.1469  136.5768   -3.6549 H   0  0  0  0  0  0  0  0  0  0  0  0
   14.2959  136.1218   -4.7223 H   0  0  0  0  0  0  0  0  0  0  0  0
   14.9741  133.6808   -1.6722 H   0  0  0  0  0  0  0  0  0  0  0  0
   12.6781  133.4486   -3.4448 H   0  0  0  0  0  0  0  0  0  0  0  0
   13.1032  132.3761   -2.2891 H   0  0  0  0  0  0  0  0  0  0  0  0
   13.4095  131.5794   -4.5857 H   0  0  0  0  0  0  0  0  0  0  0  0
   14.7276  131.4340   -3.6327 H   0  0  0  0  0  0  0  0  0  0  0  0
   16.8040  133.5732   -5.6299 H   0  0  0  0  0  0  0  0  0  0  0  0
   16.6190  133.4266   -4.0141 H   0  0  0  0  0  0  0  0  0  0  0  0
   16.8296  132.0952   -4.9359 H   0  0  0  0  0  0  0  0  0  0  0  0
   13.3001  133.3734   -6.1892 H   0  0  0  0  0  0  0  0  0  0  0  0
   15.0710  135.2646   -6.8347 H   0  0  0  0  0  0  0  0  0  0  0  0
   14.4427  134.3141   -8.0045 H   0  0  0  0  0  0  0  0  0  0  0  0
   16.5738  134.3424   -9.3566 H   0  0  0  0  0  0  0  0  0  0  0  0
   18.5829  135.0887   -6.2725 H   0  0  0  0  0  0  0  0  0  0  0  0
   17.3110  136.1087   -6.1801 H   0  0  0  0  0  0  0  0  0  0  0  0
  1  2  1  0  0  0  0
  2  3  1  0  0  0  0
  2  4  2  0  0  0  0
  4  5  1  0  0  0  0
  5  6  1  0  0  0  0
  6  7  1  0  0  0  0
  7  8  1  0  0  0  0
  7  9  2  0  0  0  0
  9 10  1  0  0  0  0
 10 11  1  0  0  0  0
 11 12  1  0  0  0  0
 12 13  1  0  0  0  0
 12 14  2  0  0  0  0
 14 15  1  0  0  0  0
 15 16  1  0  0  0  0
 16 17  1  0  0  0  0
 17 18  1  0  0  0  0
 18 19  2  0  0  0  0
 18 20  1  0  0  0  0
 20 21  1  0  0  0  0
 21 22  2  0  0  0  0
 21 23  1  0  0  0  0
 21 24  1  0  0  0  0
  1 25  1  0  0  0  0
  1 26  1  0  0  0  0
  1 27  1  0  0  0  0
  3 28  1  0  0  0  0
  3 29  1  0  0  0  0
  3 30  1  0  0  0  0
  4 31  1  0  0  0  0
  5 32  1  0  0  0  0
  5 33  1  0  0  0  0
  6 34  1  0  0  0  0
  6 35  1  0  0  0  0
  8 36  1  0  0  0  0
  8 37  1  0  0  0  0
  8 38  1  0  0  0  0
  9 39  1  0  0  0  0
 10 40  1  0  0  0  0
 10 41  1  0  0  0  0
 11 42  1  0  0  0  0
 11 43  1  0  0  0  0
 13 44  1  0  0  0  0
 13 45  1  0  0  0  0
 13 46  1  0  0  0  0
 14 47  1  0  0  0  0
 15 48  1  0  0  0  0
 15 49  1  0  0  0  0
 17 50  1  0  0  0  0
 20 51  1  0  0  0  0
 20 52  1  0  0  0  0
M  CHG  2  23  -1  24  -1
M  END
> <BIOSOLVEIT.HYDE_ESTIMATED_AFFINITY_LOWER_BOUNDARY [nM]>
2437.954345

> <BIOSOLVEIT.HYDE_ESTIMATED_AFFINITY_UPPER_BOUNDARY [nM]>
242225.178466

> <BIOSOLVEIT.HYDE_LIGAND_EFFICIENCY range: ++, +, 0, -, -->
-

> <BIOSOLVEIT.HYDE_LIGAND_LIPOPHILIC_EFFICIENCY range: ++, +, 0, -, -->
-

> <BIOSOLVEIT.INTER_CLASH range: red, yellow, green>
green

> <BIOSOLVEIT.INTRA_CLASH range: red, yellow, green>
red

> <BIOSOLVEIT.LOGP>
2.3671

> <BIOSOLVEIT.MOLECULAR WEIGHT>
357.384

> <BIOSOLVEIT.MOLECULE_CHECKSUM>
LTI2LjMzODk7MS4wOTc0NQ==

> <BIOSOLVEIT.TORSION_QUALITY range: red, yellow, green, not rotatable>
yellow

> <BIOSOLVEIT.TPSA>
101.52

$$$$
2IEJ_S48_1
foHydescor03232113463D 1   1.00000     0.00000     0
Hydescorer 1.1.0 fol007
 68 72  0  0  0  0            999 V2000
   15.1955  135.0376   -9.1929 C   0  0  0  0  0  0  0  0  0  0  0  0
   15.8906  135.5440   -8.0602 O   0  0  0  0  0  0  0  0  0  0  0  0
   17.2383  135.9119   -8.1072 C   0  0  0  0  0  0  0  0  0  0  0  0
   17.7924  136.1869   -9.2073 O   0  0  0  0  0  0  0  0  0  0  0  0
   18.0194  136.0171   -6.8334 C   0  0  0  0  0  0  0  0  0  0  0  0
   17.9866  137.4059   -6.3145 N   0  0  0  0  0  0  0  0  0  0  0  0
   17.2546  137.5385   -5.0146 C   0  0  2  0  0  0  0  0  0  0  0  0
   17.9457  136.6478   -3.9949 C   0  0  0  0  0  0  0  0  0  0  0  0
   17.1209  136.7656   -2.7261 C   0  0  0  0  0  0  0  0  0  0  0  0
   17.7518  136.9332   -1.4988 C   0  0  0  0  0  0  0  0  0  0  0  0
   16.9636  137.0770   -0.3603 C   0  0  0  0  0  0  0  0  0  0  0  0
   17.6118  137.2951    0.9186 C   0  0  0  0  0  0  0  0  0  0  0  0
   19.0005  137.2885    0.9916 C   0  0  0  0  0  0  0  0  0  0  0  0
   19.6157  137.4978    2.2213 C   0  0  0  0  0  0  0  0  0  0  0  0
   18.8522  137.7113    3.3634 C   0  0  0  0  0  0  0  0  0  0  0  0
   17.4633  137.7159    3.2810 C   0  0  0  0  0  0  0  0  0  0  0  0
   16.8389  137.5075    2.0557 C   0  0  0  0  0  0  0  0  0  0  0  0
   15.5759  137.0261   -0.4359 C   0  0  0  0  0  0  0  0  0  0  0  0
   14.9800  136.8356   -1.6789 C   0  0  0  0  0  0  0  0  0  0  0  0
   15.7355  136.7009   -2.8386 C   0  0  0  0  0  0  0  0  0  0  0  0
   15.1596  136.5218   -4.1106 N   0  0  0  0  0  0  0  0  0  0  0  0
   13.9459  135.7173   -4.3158 C   0  0  0  0  0  0  0  0  0  0  0  0
   14.2387  134.2539   -4.1329 C   0  0  0  0  0  0  0  0  0  0  0  0
   14.4763  133.6297   -2.9436 C   0  0  0  0  0  0  0  0  0  0  0  0
   14.6921  132.3127   -3.2224 N   0  0  0  0  0  0  0  0  0  0  0  0
   14.5922  132.1361   -4.5225 C   0  0  0  0  0  0  0  0  0  0  0  0
   14.3039  133.3229   -5.1212 N   0  0  0  0  0  0  0  0  0  0  0  0
   14.1092  133.5583   -6.5597 C   0  0  0  0  0  0  0  0  0  0  0  0
   15.7930  137.1918   -5.2584 C   0  0  0  0  0  0  0  0  0  0  0  0
   19.6445  138.0073   -6.2025 S   0  0  0  0  0  0  0  0  0  0  0  0
   20.3663  137.8757   -7.5153 O   0  0  0  0  0  0  0  0  0  0  0  0
   19.6074  139.4677   -5.8484 O   0  0  0  0  0  0  0  0  0  0  0  0
   20.5837  137.1503   -4.9872 C   0  0  0  0  0  0  0  0  0  0  0  0
   21.2193  135.9621   -5.1799 C   0  0  0  0  0  0  0  0  0  0  0  0
   21.8134  135.6697   -3.9929 N   0  0  0  0  0  0  0  0  0  0  0  0
   22.6237  134.4773   -3.7062 C   0  0  0  0  0  0  0  0  0  0  0  0
   21.5333  136.6704   -3.1140 C   0  0  0  0  0  0  0  0  0  0  0  0
   20.7884  137.5737   -3.7075 N   0  0  0  0  0  0  0  0  0  0  0  0
   14.2483  134.8389   -8.9414 H   0  0  0  0  0  0  0  0  0  0  0  0
   15.2101  135.7187   -9.9249 H   0  0  0  0  0  0  0  0  0  0  0  0
   15.6394  134.1991   -9.5090 H   0  0  0  0  0  0  0  0  0  0  0  0
   18.9683  135.7535   -7.0070 H   0  0  0  0  0  0  0  0  0  0  0  0
   17.6218  135.4023   -6.1524 H   0  0  0  0  0  0  0  0  0  0  0  0
   17.3138  138.4880   -4.7064 H   0  0  0  0  0  0  0  0  0  0  0  0
   18.8812  136.9622   -3.8337 H   0  0  0  0  0  0  0  0  0  0  0  0
   17.9627  135.7001   -4.3137 H   0  0  0  0  0  0  0  0  0  0  0  0
   18.7496  136.9501   -1.4352 H   0  0  0  0  0  0  0  0  0  0  0  0
   19.5499  137.1351    0.1703 H   0  0  0  0  0  0  0  0  0  0  0  0
   20.6136  137.4948    2.2843 H   0  0  0  0  0  0  0  0  0  0  0  0
   19.3013  137.8616    4.2442 H   0  0  0  0  0  0  0  0  0  0  0  0
   16.9141  137.8690    4.1025 H   0  0  0  0  0  0  0  0  0  0  0  0
   15.8409  137.5103    1.9926 H   0  0  0  0  0  0  0  0  0  0  0  0
   15.0168  137.1244    0.3874 H   0  0  0  0  0  0  0  0  0  0  0  0
   13.9827  136.7946   -1.7398 H   0  0  0  0  0  0  0  0  0  0  0  0
   13.6042  135.8700   -5.2431 H   0  0  0  0  0  0  0  0  0  0  0  0
   13.2508  135.9978   -3.6539 H   0  0  0  0  0  0  0  0  0  0  0  0
   14.4897  134.0568   -2.0395 H   0  0  0  0  0  0  0  0  0  0  0  0
   14.7100  131.2639   -4.9971 H   0  0  0  0  0  0  0  0  0  0  0  0
   13.9090  134.5256   -6.7150 H   0  0  0  0  0  0  0  0  0  0  0  0
   14.9411  133.3066   -7.0542 H   0  0  0  0  0  0  0  0  0  0  0  0
   13.3453  133.0028   -6.8880 H   0  0  0  0  0  0  0  0  0  0  0  0
   15.2931  138.0365   -5.4496 H   0  0  0  0  0  0  0  0  0  0  0  0
   15.7378  136.5851   -6.0514 H   0  0  0  0  0  0  0  0  0  0  0  0
   21.2439  135.4183   -6.0187 H   0  0  0  0  0  0  0  0  0  0  0  0
   22.9403  134.5094   -2.7582 H   0  0  0  0  0  0  0  0  0  0  0  0
   22.0695  133.6564   -3.8449 H   0  0  0  0  0  0  0  0  0  0  0  0
   23.4124  134.4546   -4.3205 H   0  0  0  0  0  0  0  0  0  0  0  0
   21.8458  136.7111   -2.1650 H   0  0  0  0  0  0  0  0  0  0  0  0
  1  2  1  0  0  0  0
  2  3  1  0  0  0  0
  3  4  2  0  0  0  0
  3  5  1  0  0  0  0
  5  6  1  0  0  0  0
  6  7  1  0  0  0  0
  7  8  1  0  0  0  0
  8  9  1  0  0  0  0
  9 10  2  0  0  0  0
 10 11  1  0  0  0  0
 11 12  1  0  0  0  0
 12 13  2  0  0  0  0
 13 14  1  0  0  0  0
 14 15  2  0  0  0  0
 15 16  1  0  0  0  0
 16 17  2  0  0  0  0
 11 18  2  0  0  0  0
 18 19  1  0  0  0  0
 19 20  2  0  0  0  0
 20 21  1  0  0  0  0
 21 22  1  0  0  0  0
 22 23  1  0  0  0  0
 23 24  2  0  0  0  0
 24 25  1  0  0  0  0
 25 26  2  0  0  0  0
 26 27  1  0  0  0  0
 27 28  1  0  0  0  0
 21 29  1  0  0  0  0
  6 30  1  0  0  0  0
 30 31  2  0  0  0  0
 30 32  2  0  0  0  0
 30 33  1  0  0  0  0
 33 34  2  0  0  0  0
 34 35  1  0  0  0  0
 35 36  1  0  0  0  0
 35 37  1  0  0  0  0
 37 38  2  0  0  0  0
 29  7  1  0  0  0  0
 38 33  1  0  0  0  0
 20  9  1  0  0  0  0
 27 23  1  0  0  0  0
 17 12  1  0  0  0  0
  1 39  1  0  0  0  0
  1 40  1  0  0  0  0
  1 41  1  0  0  0  0
  5 42  1  0  0  0  0
  5 43  1  0  0  0  0
  7 44  1  0  0  0  0
  8 45  1  0  0  0  0
  8 46  1  0  0  0  0
 10 47  1  0  0  0  0
 13 48  1  0  0  0  0
 14 49  1  0  0  0  0
 15 50  1  0  0  0  0
 16 51  1  0  0  0  0
 17 52  1  0  0  0  0
 18 53  1  0  0  0  0
 19 54  1  0  0  0  0
 22 55  1  0  0  0  0
 22 56  1  0  0  0  0
 24 57  1  0  0  0  0
 26 58  1  0  0  0  0
 28 59  1  0  0  0  0
 28 60  1  0  0  0  0
 28 61  1  0  0  0  0
 29 62  1  0  0  0  0
 29 63  1  0  0  0  0
 34 64  1  0  0  0  0
 36 65  1  0  0  0  0
 36 66  1  0  0  0  0
 36 67  1  0  0  0  0
 37 68  1  0  0  0  0
M  END
> <BIOSOLVEIT.HYDE_ESTIMATED_AFFINITY_LOWER_BOUNDARY [nM]>
8484772.568774

> <BIOSOLVEIT.HYDE_ESTIMATED_AFFINITY_UPPER_BOUNDARY [nM]>
843012320.653321

> <BIOSOLVEIT.HYDE_LIGAND_EFFICIENCY range: ++, +, 0, -, -->
--

> <BIOSOLVEIT.HYDE_LIGAND_LIPOPHILIC_EFFICIENCY range: ++, +, 0, -, -->
--

> <BIOSOLVEIT.INTER_CLASH range: red, yellow, green>
green

> <BIOSOLVEIT.INTRA_CLASH range: red, yellow, green>
red

> <BIOSOLVEIT.LOGP>
3.2664

> <BIOSOLVEIT.MOLECULAR WEIGHT>
534.637

> <BIOSOLVEIT.MOLECULE_CHECKSUM>
LTYuMTIzMzQ7MC4xNjExNDE=

> <BIOSOLVEIT.TORSION_QUALITY range: red, yellow, green, not rotatable>
red

> <BIOSOLVEIT.TPSA>
102.56

$$$$
2IEJ_S48_2
foHydescor03232113463D 1   1.00000     0.00000     0
Hydescorer 1.1.0 fol007
 68 72  0  0  0  0            999 V2000
   15.6620  136.5905   -9.7254 C   0  0  0  0  0  0  0  0  0  0  0  0
   16.2321  136.5438   -8.4233 O   0  0  0  0  0  0  0  0  0  0  0  0
   17.5829  136.2597   -8.2034 C   0  0  0  0  0  0  0  0  0  0  0  0
   18.3517  136.0002   -9.1700 O   0  0  0  0  0  0  0  0  0  0  0  0
   18.1285  136.3025   -6.8090 C   0  0  0  0  0  0  0  0  0  0  0  0
   18.1030  137.6879   -6.2810 N   0  0  0  0  0  0  0  0  0  0  0  0
   17.2832  137.8357   -5.0363 C   0  0  2  0  0  0  0  0  0  0  0  0
   17.7325  136.7697   -4.0502 C   0  0  0  0  0  0  0  0  0  0  0  0
   16.8221  136.9201   -2.8451 C   0  0  0  0  0  0  0  0  0  0  0  0
   17.3552  136.8891   -1.5616 C   0  0  0  0  0  0  0  0  0  0  0  0
   16.4967  137.0693   -0.4806 C   0  0  0  0  0  0  0  0  0  0  0  0
   17.0498  137.0813    0.8600 C   0  0  0  0  0  0  0  0  0  0  0  0
   16.4139  137.8150    1.8556 C   0  0  0  0  0  0  0  0  0  0  0  0
   16.9498  137.8226    3.1391 C   0  0  0  0  0  0  0  0  0  0  0  0
   18.1064  137.1057    3.4236 C   0  0  0  0  0  0  0  0  0  0  0  0
   18.7360  136.3747    2.4211 C   0  0  0  0  0  0  0  0  0  0  0  0
   18.2078  136.3609    1.1345 C   0  0  0  0  0  0  0  0  0  0  0  0
   15.1305  137.2478   -0.6699 C   0  0  0  0  0  0  0  0  0  0  0  0
   14.6297  137.2519   -1.9683 C   0  0  0  0  0  0  0  0  0  0  0  0
   15.4594  137.0875   -3.0720 C   0  0  0  0  0  0  0  0  0  0  0  0
   14.9827  137.1018   -4.3965 N   0  0  0  0  0  0  0  0  0  0  0  0
   13.6843  136.5208   -4.7690 C   0  0  0  0  0  0  0  0  0  0  0  0
   13.7369  135.0191   -4.7160 C   0  0  0  0  0  0  0  0  0  0  0  0
   13.5310  134.2516   -3.6073 C   0  0  0  0  0  0  0  0  0  0  0  0
   13.6668  132.9512   -3.9938 N   0  0  0  0  0  0  0  0  0  0  0  0
   13.9438  132.9211   -5.2797 C   0  0  0  0  0  0  0  0  0  0  0  0
   13.9888  134.1913   -5.7644 N   0  0  0  0  0  0  0  0  0  0  0  0
   14.2654  134.5945   -7.1513 C   0  0  0  0  0  0  0  0  0  0  0  0
   15.8145  137.7479   -5.4252 C   0  0  0  0  0  0  0  0  0  0  0  0
   19.7670  138.2336   -6.0438 S   0  0  0  0  0  0  0  0  0  0  0  0
   20.5479  138.1892   -7.3282 O   0  0  0  0  0  0  0  0  0  0  0  0
   19.7465  139.6611   -5.5732 O   0  0  0  0  0  0  0  0  0  0  0  0
   20.6267  137.2563   -4.8608 C   0  0  0  0  0  0  0  0  0  0  0  0
   21.2766  136.0907   -5.1286 C   0  0  0  0  0  0  0  0  0  0  0  0
   21.7924  135.6793   -3.9403 N   0  0  0  0  0  0  0  0  0  0  0  0
   22.5851  134.4611   -3.7212 C   0  0  0  0  0  0  0  0  0  0  0  0
   21.4525  136.5888   -2.9865 C   0  0  0  0  0  0  0  0  0  0  0  0
   20.7459  137.5495   -3.5347 N   0  0  0  0  0  0  0  0  0  0  0  0
   14.6887  136.8091   -9.6555 H   0  0  0  0  0  0  0  0  0  0  0  0
   16.1234  137.2937  -10.2663 H   0  0  0  0  0  0  0  0  0  0  0  0
   15.7729  135.7016  -10.1699 H   0  0  0  0  0  0  0  0  0  0  0  0
   19.0717  135.9703   -6.8147 H   0  0  0  0  0  0  0  0  0  0  0  0
   17.5721  135.7161   -6.2203 H   0  0  0  0  0  0  0  0  0  0  0  0
   17.4586  138.7367   -4.6396 H   0  0  0  0  0  0  0  0  0  0  0  0
   18.6863  136.9164   -3.7878 H   0  0  0  0  0  0  0  0  0  0  0  0
   17.6334  135.8590   -4.4512 H   0  0  0  0  0  0  0  0  0  0  0  0
   18.3336  136.7407   -1.4181 H   0  0  0  0  0  0  0  0  0  0  0  0
   15.5817  138.3305    1.6513 H   0  0  0  0  0  0  0  0  0  0  0  0
   16.5001  138.3473    3.8619 H   0  0  0  0  0  0  0  0  0  0  0  0
   18.4858  137.1154    4.3488 H   0  0  0  0  0  0  0  0  0  0  0  0
   19.5683  135.8594    2.6256 H   0  0  0  0  0  0  0  0  0  0  0  0
   18.6575  135.8366    0.4114 H   0  0  0  0  0  0  0  0  0  0  0  0
   14.5195  137.3709    0.1122 H   0  0  0  0  0  0  0  0  0  0  0  0
   13.6478  137.3763   -2.1112 H   0  0  0  0  0  0  0  0  0  0  0  0
   13.4509  136.8081   -5.6980 H   0  0  0  0  0  0  0  0  0  0  0  0
   12.9846  136.8470   -4.1335 H   0  0  0  0  0  0  0  0  0  0  0  0
   13.3206  134.5802   -2.6866 H   0  0  0  0  0  0  0  0  0  0  0  0
   14.0974  132.0924   -5.8178 H   0  0  0  0  0  0  0  0  0  0  0  0
   14.2347  135.5916   -7.2209 H   0  0  0  0  0  0  0  0  0  0  0  0
   15.1727  134.2696   -7.4182 H   0  0  0  0  0  0  0  0  0  0  0  0
   13.5770  134.1966   -7.7577 H   0  0  0  0  0  0  0  0  0  0  0  0
   15.4698  138.6742   -5.5779 H   0  0  0  0  0  0  0  0  0  0  0  0
   15.7404  137.2210   -6.2719 H   0  0  0  0  0  0  0  0  0  0  0  0
   21.3576  135.6329   -6.0140 H   0  0  0  0  0  0  0  0  0  0  0  0
   22.8388  134.3976   -2.7560 H   0  0  0  0  0  0  0  0  0  0  0  0
   22.0434  133.6604   -3.9769 H   0  0  0  0  0  0  0  0  0  0  0  0
   23.4125  134.4966   -4.2816 H   0  0  0  0  0  0  0  0  0  0  0  0
   21.7020  136.5337   -2.0197 H   0  0  0  0  0  0  0  0  0  0  0  0
  1  2  1  0  0  0  0
  2  3  1  0  0  0  0
  3  4  2  0  0  0  0
  3  5  1  0  0  0  0
  5  6  1  0  0  0  0
  6  7  1  0  0  0  0
  7  8  1  0  0  0  0
  8  9  1  0  0  0  0
  9 10  2  0  0  0  0
 10 11  1  0  0  0  0
 11 12  1  0  0  0  0
 12 13  2  0  0  0  0
 13 14  1  0  0  0  0
 14 15  2  0  0  0  0
 15 16  1  0  0  0  0
 16 17  2  0  0  0  0
 11 18  2  0  0  0  0
 18 19  1  0  0  0  0
 19 20  2  0  0  0  0
 20 21  1  0  0  0  0
 21 22  1  0  0  0  0
 22 23  1  0  0  0  0
 23 24  2  0  0  0  0
 24 25  1  0  0  0  0
 25 26  2  0  0  0  0
 26 27  1  0  0  0  0
 27 28  1  0  0  0  0
 21 29  1  0  0  0  0
  6 30  1  0  0  0  0
 30 31  2  0  0  0  0
 30 32  2  0  0  0  0
 30 33  1  0  0  0  0
 33 34  2  0  0  0  0
 34 35  1  0  0  0  0
 35 36  1  0  0  0  0
 35 37  1  0  0  0  0
 37 38  2  0  0  0  0
 29  7  1  0  0  0  0
 38 33  1  0  0  0  0
 20  9  1  0  0  0  0
 27 23  1  0  0  0  0
 17 12  1  0  0  0  0
  1 39  1  0  0  0  0
  1 40  1  0  0  0  0
  1 41  1  0  0  0  0
  5 42  1  0  0  0  0
  5 43  1  0  0  0  0
  7 44  1  0  0  0  0
  8 45  1  0  0  0  0
  8 46  1  0  0  0  0
 10 47  1  0  0  0  0
 13 48  1  0  0  0  0
 14 49  1  0  0  0  0
 15 50  1  0  0  0  0
 16 51  1  0  0  0  0
 17 52  1  0  0  0  0
 18 53  1  0  0  0  0
 19 54  1  0  0  0  0
 22 55  1  0  0  0  0
 22 56  1  0  0  0  0
 24 57  1  0  0  0  0
 26 58  1  0  0  0  0
 28 59  1  0  0  0  0
 28 60  1  0  0  0  0
 28 61  1  0  0  0  0
 29 62  1  0  0  0  0
 29 63  1  0  0  0  0
 34 64  1  0  0  0  0
 36 65  1  0  0  0  0
 36 66  1  0  0  0  0
 36 67  1  0  0  0  0
 37 68  1  0  0  0  0
M  END
> <BIOSOLVEIT.HYDE_ESTIMATED_AFFINITY_LOWER_BOUNDARY [nM]>
57981092.534578

> <BIOSOLVEIT.HYDE_ESTIMATED_AFFINITY_UPPER_BOUNDARY [nM]>
5760764354.659861

> <BIOSOLVEIT.HYDE_LIGAND_EFFICIENCY range: ++, +, 0, -, -->
--

> <BIOSOLVEIT.HYDE_LIGAND_LIPOPHILIC_EFFICIENCY range: ++, +, 0, -, -->
--

> <BIOSOLVEIT.INTER_CLASH range: red, yellow, green>
green

> <BIOSOLVEIT.INTRA_CLASH range: red, yellow, green>
green

> <BIOSOLVEIT.LOGP>
3.2664

> <BIOSOLVEIT.MOLECULAR WEIGHT>
534.637

> <BIOSOLVEIT.MOLECULE_CHECKSUM>
LTEuMzU5MTc7MC4wMzU3Njc3

> <BIOSOLVEIT.TORSION_QUALITY range: red, yellow, green, not rotatable>
yellow

> <BIOSOLVEIT.TPSA>
102.56

$$$$
2IEJ_S48_3
foHydescor03232113463D 1   1.00000     0.00000     0
Hydescorer 1.1.0 fol007
 68 72  0  0  0  0            999 V2000
   15.4314  135.9318   -9.5519 C   0  0  0  0  0  0  0  0  0  0  0  0
   16.0484  135.9299   -8.2705 O   0  0  0  0  0  0  0  0  0  0  0  0
   17.4295  136.0614   -8.1007 C   0  0  0  0  0  0  0  0  0  0  0  0
   18.1970  136.1337   -9.0999 O   0  0  0  0  0  0  0  0  0  0  0  0
   17.9971  136.1558   -6.7177 C   0  0  0  0  0  0  0  0  0  0  0  0
   18.0335  137.5671   -6.2638 N   0  0  0  0  0  0  0  0  0  0  0  0
   17.3038  137.7975   -4.9765 C   0  0  2  0  0  0  0  0  0  0  0  0
   17.7878  136.7641   -3.9723 C   0  0  0  0  0  0  0  0  0  0  0  0
   16.9650  136.9982   -2.7183 C   0  0  0  0  0  0  0  0  0  0  0  0
   17.5821  137.0091   -1.4728 C   0  0  0  0  0  0  0  0  0  0  0  0
   16.8038  137.2657   -0.3474 C   0  0  0  0  0  0  0  0  0  0  0  0
   17.4457  137.3216    0.9518 C   0  0  0  0  0  0  0  0  0  0  0  0
   18.8170  137.1104    1.0467 C   0  0  0  0  0  0  0  0  0  0  0  0
   19.4264  137.1649    2.2958 C   0  0  0  0  0  0  0  0  0  0  0  0
   18.6745  137.4274    3.4353 C   0  0  0  0  0  0  0  0  0  0  0  0
   17.3030  137.6370    3.3309 C   0  0  0  0  0  0  0  0  0  0  0  0
   16.6846  137.5845    2.0861 C   0  0  0  0  0  0  0  0  0  0  0  0
   15.4335  137.4784   -0.4547 C   0  0  0  0  0  0  0  0  0  0  0  0
   14.8470  137.4389   -1.7160 C   0  0  0  0  0  0  0  0  0  0  0  0
   15.5957  137.1980   -2.8628 C   0  0  0  0  0  0  0  0  0  0  0  0
   15.0315  137.1666   -4.1523 N   0  0  0  0  0  0  0  0  0  0  0  0
   13.6950  136.6104   -4.4104 C   0  0  0  0  0  0  0  0  0  0  0  0
   13.7936  135.3113   -5.1608 C   0  0  0  0  0  0  0  0  0  0  0  0
   13.7129  135.1629   -6.5143 C   0  0  0  0  0  0  0  0  0  0  0  0
   13.8532  133.8325   -6.7771 N   0  0  0  0  0  0  0  0  0  0  0  0
   14.0120  133.1931   -5.6380 C   0  0  0  0  0  0  0  0  0  0  0  0
   13.9868  134.0836   -4.6100 N   0  0  0  0  0  0  0  0  0  0  0  0
   14.1308  133.7792   -3.1787 C   0  0  0  0  0  0  0  0  0  0  0  0
   15.8104  137.7385   -5.2633 C   0  0  0  0  0  0  0  0  0  0  0  0
   19.7197  138.0875   -6.1688 S   0  0  0  0  0  0  0  0  0  0  0  0
   20.4240  137.9112   -7.4859 O   0  0  0  0  0  0  0  0  0  0  0  0
   19.7568  139.5505   -5.8254 O   0  0  0  0  0  0  0  0  0  0  0  0
   20.6254  137.1945   -4.9540 C   0  0  0  0  0  0  0  0  0  0  0  0
   21.2951  136.0297   -5.1727 C   0  0  0  0  0  0  0  0  0  0  0  0
   21.8447  135.6947   -3.9757 N   0  0  0  0  0  0  0  0  0  0  0  0
   22.6686  134.5072   -3.7086 C   0  0  0  0  0  0  0  0  0  0  0  0
   21.5048  136.6475   -3.0651 C   0  0  0  0  0  0  0  0  0  0  0  0
   20.7658  137.5619   -3.6486 N   0  0  0  0  0  0  0  0  0  0  0  0
   14.4427  135.8263   -9.4460 H   0  0  0  0  0  0  0  0  0  0  0  0
   15.6267  136.7966  -10.0146 H   0  0  0  0  0  0  0  0  0  0  0  0
   15.7911  135.1739  -10.0962 H   0  0  0  0  0  0  0  0  0  0  0  0
   18.9264  135.7866   -6.7179 H   0  0  0  0  0  0  0  0  0  0  0  0
   17.4272  135.6238   -6.0914 H   0  0  0  0  0  0  0  0  0  0  0  0
   17.5310  138.7097   -4.6357 H   0  0  0  0  0  0  0  0  0  0  0  0
   18.7607  136.8925   -3.7805 H   0  0  0  0  0  0  0  0  0  0  0  0
   17.6361  135.8396   -4.3220 H   0  0  0  0  0  0  0  0  0  0  0  0
   18.5634  136.8365   -1.3870 H   0  0  0  0  0  0  0  0  0  0  0  0
   19.3581  136.9218    0.2272 H   0  0  0  0  0  0  0  0  0  0  0  0
   20.4119  137.0142    2.3746 H   0  0  0  0  0  0  0  0  0  0  0  0
   19.1194  137.4654    4.3301 H   0  0  0  0  0  0  0  0  0  0  0  0
   16.7620  137.8254    4.1506 H   0  0  0  0  0  0  0  0  0  0  0  0
   15.6991  137.7349    2.0071 H   0  0  0  0  0  0  0  0  0  0  0  0
   14.8803  137.6564    0.3590 H   0  0  0  0  0  0  0  0  0  0  0  0
   13.8617  137.5876   -1.7998 H   0  0  0  0  0  0  0  0  0  0  0  0
   13.1673  137.2635   -4.9534 H   0  0  0  0  0  0  0  0  0  0  0  0
   13.2321  136.4511   -3.5384 H   0  0  0  0  0  0  0  0  0  0  0  0
   13.5769  135.8912   -7.1858 H   0  0  0  0  0  0  0  0  0  0  0  0
   14.1327  132.2050   -5.5427 H   0  0  0  0  0  0  0  0  0  0  0  0
   14.0727  134.6262   -2.6503 H   0  0  0  0  0  0  0  0  0  0  0  0
   13.4001  133.1584   -2.8947 H   0  0  0  0  0  0  0  0  0  0  0  0
   15.0176  133.3461   -3.0176 H   0  0  0  0  0  0  0  0  0  0  0  0
   15.4826  138.6672   -5.4370 H   0  0  0  0  0  0  0  0  0  0  0  0
   15.6645  137.1759   -6.0771 H   0  0  0  0  0  0  0  0  0  0  0  0
   21.3676  135.5262   -6.0336 H   0  0  0  0  0  0  0  0  0  0  0  0
   22.9439  134.5019   -2.7472 H   0  0  0  0  0  0  0  0  0  0  0  0
   22.1395  133.6826   -3.9084 H   0  0  0  0  0  0  0  0  0  0  0  0
   23.4831  134.5293   -4.2883 H   0  0  0  0  0  0  0  0  0  0  0  0
   21.7757  136.6504   -2.1025 H   0  0  0  0  0  0  0  0  0  0  0  0
  1  2  1  0  0  0  0
  2  3  1  0  0  0  0
  3  4  2  0  0  0  0
  3  5  1  0  0  0  0
  5  6  1  0  0  0  0
  6  7  1  0  0  0  0
  7  8  1  0  0  0  0
  8  9  1  0  0  0  0
  9 10  2  0  0  0  0
 10 11  1  0  0  0  0
 11 12  1  0  0  0  0
 12 13  2  0  0  0  0
 13 14  1  0  0  0  0
 14 15  2  0  0  0  0
 15 16  1  0  0  0  0
 16 17  2  0  0  0  0
 11 18  2  0  0  0  0
 18 19  1  0  0  0  0
 19 20  2  0  0  0  0
 20 21  1  0  0  0  0
 21 22  1  0  0  0  0
 22 23  1  0  0  0  0
 23 24  2  0  0  0  0
 24 25  1  0  0  0  0
 25 26  2  0  0  0  0
 26 27  1  0  0  0  0
 27 28  1  0  0  0  0
 21 29  1  0  0  0  0
  6 30  1  0  0  0  0
 30 31  2  0  0  0  0
 30 32  2  0  0  0  0
 30 33  1  0  0  0  0
 33 34  2  0  0  0  0
 34 35  1  0  0  0  0
 35 36  1  0  0  0  0
 35 37  1  0  0  0  0
 37 38  2  0  0  0  0
 29  7  1  0  0  0  0
 38 33  1  0  0  0  0
 20  9  1  0  0  0  0
 27 23  1  0  0  0  0
 17 12  1  0  0  0  0
  1 39  1  0  0  0  0
  1 40  1  0  0  0  0
  1 41  1  0  0  0  0
  5 42  1  0  0  0  0
  5 43  1  0  0  0  0
  7 44  1  0  0  0  0
  8 45  1  0  0  0  0
  8 46  1  0  0  0  0
 10 47  1  0  0  0  0
 13 48  1  0  0  0  0
 14 49  1  0  0  0  0
 15 50  1  0  0  0  0
 16 51  1  0  0  0  0
 17 52  1  0  0  0  0
 18 53  1  0  0  0  0
 19 54  1  0  0  0  0
 22 55  1  0  0  0  0
 22 56  1  0  0  0  0
 24 57  1  0  0  0  0
 26 58  1  0  0  0  0
 28 59  1  0  0  0  0
 28 60  1  0  0  0  0
 28 61  1  0  0  0  0
 29 62  1  0  0  0  0
 29 63  1  0  0  0  0
 34 64  1  0  0  0  0
 36 65  1  0  0  0  0
 36 66  1  0  0  0  0
 36 67  1  0  0  0  0
 37 68  1  0  0  0  0
M  END
> <BIOSOLVEIT.HYDE_ESTIMATED_AFFINITY_LOWER_BOUNDARY [nM]>
37100941.624228

> <BIOSOLVEIT.HYDE_ESTIMATED_AFFINITY_UPPER_BOUNDARY [nM]>
3686197908.494216

> <BIOSOLVEIT.HYDE_LIGAND_EFFICIENCY range: ++, +, 0, -, -->
--

> <BIOSOLVEIT.HYDE_LIGAND_LIPOPHILIC_EFFICIENCY range: ++, +, 0, -, -->
--

> <BIOSOLVEIT.INTER_CLASH range: red, yellow, green>
green

> <BIOSOLVEIT.INTRA_CLASH range: red, yellow, green>
green

> <BIOSOLVEIT.LOGP>
3.2664

> <BIOSOLVEIT.MOLECULAR WEIGHT>
534.637

> <BIOSOLVEIT.MOLECULE_CHECKSUM>
LTIuNDY1OTY7MC4wNjQ4OTM4

> <BIOSOLVEIT.TORSION_QUALITY range: red, yellow, green, not rotatable>
yellow

> <BIOSOLVEIT.TPSA>
102.56

$$$$
1LD8_FPP_1
foHydescor03232113463D 1   1.00000     0.00000     0
Hydescorer 1.1.0 fol007
 49 48  0  0  0  0            999 V2000
   14.1361  133.7359   -5.0144 C   0  0  0  0  0  0  0  0  0  0  0  0
   14.3102  132.4739   -4.2032 C   0  0  0  0  0  0  0  0  0  0  0  0
   13.1937  132.0085   -3.3046 C   0  0  0  0  0  0  0  0  0  0  0  0
   15.4362  131.7300   -4.2670 C   0  0  0  0  0  0  0  0  0  0  0  0
   16.6316  132.0540   -5.1322 C   0  0  0  0  0  0  0  0  0  0  0  0
   17.9268  131.4560   -4.5631 C   0  0  0  0  0  0  0  0  0  0  0  0
   18.5756  132.3773   -3.5499 C   0  0  0  0  0  0  0  0  0  0  0  0
   17.7463  132.9058   -2.4024 C   0  0  0  0  0  0  0  0  0  0  0  0
   19.8781  132.7084   -3.7010 C   0  0  0  0  0  0  0  0  0  0  0  0
   20.6391  133.6131   -2.7657 C   0  0  0  0  0  0  0  0  0  0  0  0
   21.7418  134.3642   -3.5204 C   0  0  0  0  0  0  0  0  0  0  0  0
   21.1465  135.3399   -4.5108 C   0  0  0  0  0  0  0  0  0  0  0  0
   22.0278  135.9228   -5.5910 C   0  0  0  0  0  0  0  0  0  0  0  0
   19.8406  135.6739   -4.4043 C   0  0  0  0  0  0  0  0  0  0  0  0
   19.1432  136.6317   -5.3307 C   0  0  0  0  0  0  0  0  0  0  0  0
   18.5582  135.9110   -6.3882 O   0  0  0  0  0  0  0  0  0  0  0  0
   18.7996  136.7817   -7.8359 P   0  0  0  0  0  0  0  0  0  0  0  0
   18.7788  135.8197   -9.0025 O   0  0  0  0  0  0  0  0  0  0  0  0
   20.2952  137.5769   -7.8118 O   0  5  0  0  0  0  0  0  0  0  0  0
   17.5550  137.9194   -8.0607 O   0  0  0  0  0  0  0  0  0  0  0  0
   16.2229  137.0962   -8.7265 P   0  0  0  0  0  0  0  0  0  0  0  0
   16.6039  136.5899  -10.0983 O   0  0  0  0  0  0  0  0  0  0  0  0
   15.8127  135.7732   -7.7548 O   0  5  0  0  0  0  0  0  0  0  0  0
   14.8854  138.1225   -8.8792 O   0  5  0  0  0  0  0  0  0  0  0  0
   14.9622  133.9028   -5.5527 H   0  0  0  0  0  0  0  0  0  0  0  0
   13.3535  133.6323   -5.6283 H   0  0  0  0  0  0  0  0  0  0  0  0
   13.9773  134.5083   -4.3994 H   0  0  0  0  0  0  0  0  0  0  0  0
   13.4675  131.1650   -2.8424 H   0  0  0  0  0  0  0  0  0  0  0  0
   12.9983  132.7137   -2.6231 H   0  0  0  0  0  0  0  0  0  0  0  0
   12.3745  131.8377   -3.8520 H   0  0  0  0  0  0  0  0  0  0  0  0
   15.4816  130.9065   -3.7015 H   0  0  0  0  0  0  0  0  0  0  0  0
   16.7310  133.0475   -5.1879 H   0  0  0  0  0  0  0  0  0  0  0  0
   16.4785  131.6824   -6.0478 H   0  0  0  0  0  0  0  0  0  0  0  0
   18.5678  131.2987   -5.3143 H   0  0  0  0  0  0  0  0  0  0  0  0
   17.7136  130.5857   -4.1191 H   0  0  0  0  0  0  0  0  0  0  0  0
   18.3123  133.4950   -1.8258 H   0  0  0  0  0  0  0  0  0  0  0  0
   16.9762  133.4324   -2.7625 H   0  0  0  0  0  0  0  0  0  0  0  0
   17.4017  132.1399   -1.8597 H   0  0  0  0  0  0  0  0  0  0  0  0
   20.3688  132.3280   -4.4849 H   0  0  0  0  0  0  0  0  0  0  0  0
   21.0533  133.0629   -2.0406 H   0  0  0  0  0  0  0  0  0  0  0  0
   20.0074  134.2750   -2.3622 H   0  0  0  0  0  0  0  0  0  0  0  0
   22.3104  133.7045   -4.0117 H   0  0  0  0  0  0  0  0  0  0  0  0
   22.3049  134.8660   -2.8639 H   0  0  0  0  0  0  0  0  0  0  0  0
   21.4903  136.5450   -6.1601 H   0  0  0  0  0  0  0  0  0  0  0  0
   22.7833  136.4248   -5.1700 H   0  0  0  0  0  0  0  0  0  0  0  0
   22.3932  135.1842   -6.1577 H   0  0  0  0  0  0  0  0  0  0  0  0
   19.3074  135.2600   -3.6665 H   0  0  0  0  0  0  0  0  0  0  0  0
   19.8061  137.2845   -5.6975 H   0  0  0  0  0  0  0  0  0  0  0  0
   18.4326  137.1247   -4.8287 H   0  0  0  0  0  0  0  0  0  0  0  0
  1  2  1  0  0  0  0
  2  3  1  0  0  0  0
  2  4  2  0  0  0  0
  4  5  1  0  0  0  0
  5  6  1  0  0  0  0
  6  7  1  0  0  0  0
  7  8  1  0  0  0  0
  7  9  2  0  0  0  0
  9 10  1  0  0  0  0
 10 11  1  0  0  0  0
 11 12  1  0  0  0  0
 12 13  1  0  0  0  0
 12 14  2  0  0  0  0
 14 15  1  0  0  0  0
 15 16  1  0  0  0  0
 16 17  1  0  0  0  0
 17 18  2  0  0  0  0
 17 19  1  0  0  0  0
 17 20  1  0  0  0  0
 20 21  1  0  0  0  0
 21 22  2  0  0  0  0
 21 23  1  0  0  0  0
 21 24  1  0  0  0  0
  1 25  1  0  0  0  0
  1 26  1  0  0  0  0
  1 27  1  0  0  0  0
  3 28  1  0  0  0  0
  3 29  1  0  0  0  0
  3 30  1  0  0  0  0
  4 31  1  0  0  0  0
  5 32  1  0  0  0  0
  5 33  1  0  0  0  0
  6 34  1  0  0  0  0
  6 35  1  0  0  0  0
  8 36  1  0  0  0  0
  8 37  1  0  0  0  0
  8 38  1  0  0  0  0
  9 39  1  0  0  0  0
 10 40  1  0  0  0  0
 10 41  1  0  0  0  0
 11 42  1  0  0  0  0
 11 43  1  0  0  0  0
 13 44  1  0  0  0  0
 13 45  1  0  0  0  0
 13 46  1  0  0  0  0
 14 47  1  0  0  0  0
 15 48  1  0  0  0  0
 15 49  1  0  0  0  0
M  CHG  3  19  -1  23  -1  24  -1
M  END
> <BIOSOLVEIT.HYDE_ESTIMATED_AFFINITY_LOWER_BOUNDARY [nM]>
27250332.443714

> <BIOSOLVEIT.HYDE_ESTIMATED_AFFINITY_UPPER_BOUNDARY [nM]>
2707481644.999340

> <BIOSOLVEIT.HYDE_LIGAND_EFFICIENCY range: ++, +, 0, -, -->
--

> <BIOSOLVEIT.HYDE_LIGAND_LIPOPHILIC_EFFICIENCY range: ++, +, 0, -, -->
--

> <BIOSOLVEIT.INTER_CLASH range: red, yellow, green>
green

> <BIOSOLVEIT.INTRA_CLASH range: red, yellow, green>
red

> <BIOSOLVEIT.LOGP>
2.7359

> <BIOSOLVEIT.MOLECULAR WEIGHT>
379.304

> <BIOSOLVEIT.MOLECULE_CHECKSUM>
LTMuMjMwOTE7MC4xMzQ2MjE=

> <BIOSOLVEIT.TORSION_QUALITY range: red, yellow, green, not rotatable>
green

> <BIOSOLVEIT.TPSA>
121.78

$$$$
1LD8_FPP_2
foHydescor03232113463D 1   1.00000     0.00000     0
Hydescorer 1.1.0 fol007
 49 48  0  0  0  0            999 V2000
   13.9145  132.9085   -4.4398 C   0  0  0  0  0  0  0  0  0  0  0  0
   14.4441  131.7676   -3.6037 C   0  0  0  0  0  0  0  0  0  0  0  0
   13.5076  130.6725   -3.1628 C   0  0  0  0  0  0  0  0  0  0  0  0
   15.7444  131.6834   -3.2468 C   0  0  0  0  0  0  0  0  0  0  0  0
   16.8060  132.6893   -3.6261 C   0  0  0  0  0  0  0  0  0  0  0  0
   18.1425  132.0102   -3.9597 C   0  0  0  0  0  0  0  0  0  0  0  0
   19.2755  132.5468   -3.1086 C   0  0  0  0  0  0  0  0  0  0  0  0
   19.1925  132.4102   -1.6059 C   0  0  0  0  0  0  0  0  0  0  0  0
   20.3293  133.1401   -3.7141 C   0  0  0  0  0  0  0  0  0  0  0  0
   21.5170  133.7135   -2.9838 C   0  0  0  0  0  0  0  0  0  0  0  0
   22.2795  134.6943   -3.8816 C   0  0  0  0  0  0  0  0  0  0  0  0
   21.4205  135.8919   -4.2209 C   0  0  0  0  0  0  0  0  0  0  0  0
   20.8343  136.7190   -3.1005 C   0  0  0  0  0  0  0  0  0  0  0  0
   21.1910  136.1926   -5.5190 C   0  0  0  0  0  0  0  0  0  0  0  0
   20.3544  137.3570   -5.9733 C   0  0  0  0  0  0  0  0  0  0  0  0
   20.2863  137.3585   -7.3788 O   0  0  0  0  0  0  0  0  0  0  0  0
   18.7284  136.8418   -7.8461 P   0  0  0  0  0  0  0  0  0  0  0  0
   18.1259  136.0141   -6.7333 O   0  0  0  0  0  0  0  0  0  0  0  0
   18.8093  135.8943   -9.2474 O   0  5  0  0  0  0  0  0  0  0  0  0
   17.7158  138.1803   -8.1234 O   0  0  0  0  0  0  0  0  0  0  0  0
   16.2452  137.5903   -8.7433 P   0  0  0  0  0  0  0  0  0  0  0  0
   16.5203  136.8833  -10.0502 O   0  0  0  0  0  0  0  0  0  0  0  0
   15.5612  136.4834   -7.6617 O   0  5  0  0  0  0  0  0  0  0  0  0
   15.1529  138.8518   -9.0284 O   0  5  0  0  0  0  0  0  0  0  0  0
   14.6584  133.5442   -4.6457 H   0  0  0  0  0  0  0  0  0  0  0  0
   13.5374  132.5491   -5.2934 H   0  0  0  0  0  0  0  0  0  0  0  0
   13.1971  133.3874   -3.9340 H   0  0  0  0  0  0  0  0  0  0  0  0
   14.0124  129.9999   -2.6217 H   0  0  0  0  0  0  0  0  0  0  0  0
   12.7742  131.0646   -2.6073 H   0  0  0  0  0  0  0  0  0  0  0  0
   13.1145  130.2262   -3.9668 H   0  0  0  0  0  0  0  0  0  0  0  0
   16.0241  130.8997   -2.6921 H   0  0  0  0  0  0  0  0  0  0  0  0
   16.9445  133.3178   -2.8607 H   0  0  0  0  0  0  0  0  0  0  0  0
   16.4948  133.2020   -4.4263 H   0  0  0  0  0  0  0  0  0  0  0  0
   18.3564  132.1729   -4.9229 H   0  0  0  0  0  0  0  0  0  0  0  0
   18.0548  131.0271   -3.7991 H   0  0  0  0  0  0  0  0  0  0  0  0
   20.0093  132.8092   -1.1893 H   0  0  0  0  0  0  0  0  0  0  0  0
   18.3803  132.8886   -1.2720 H   0  0  0  0  0  0  0  0  0  0  0  0
   19.1329  131.4422   -1.3621 H   0  0  0  0  0  0  0  0  0  0  0  0
   20.3200  133.2025   -4.7121 H   0  0  0  0  0  0  0  0  0  0  0  0
   22.1289  132.9693   -2.7159 H   0  0  0  0  0  0  0  0  0  0  0  0
   21.1996  134.1946   -2.1666 H   0  0  0  0  0  0  0  0  0  0  0  0
   22.5415  134.2289   -4.7270 H   0  0  0  0  0  0  0  0  0  0  0  0
   23.1012  135.0051   -3.4038 H   0  0  0  0  0  0  0  0  0  0  0  0
   20.2959  137.4684   -3.4858 H   0  0  0  0  0  0  0  0  0  0  0  0
   20.2456  136.1427   -2.5336 H   0  0  0  0  0  0  0  0  0  0  0  0
   21.5734  137.0932   -2.5404 H   0  0  0  0  0  0  0  0  0  0  0  0
   21.6014  135.6066   -6.2178 H   0  0  0  0  0  0  0  0  0  0  0  0
   20.7697  138.2102   -5.6578 H   0  0  0  0  0  0  0  0  0  0  0  0
   19.4328  137.2747   -5.5940 H   0  0  0  0  0  0  0  0  0  0  0  0
  1  2  1  0  0  0  0
  2  3  1  0  0  0  0
  2  4  2  0  0  0  0
  4  5  1  0  0  0  0
  5  6  1  0  0  0  0
  6  7  1  0  0  0  0
  7  8  1  0  0  0  0
  7  9  2  0  0  0  0
  9 10  1  0  0  0  0
 10 11  1  0  0  0  0
 11 12  1  0  0  0  0
 12 13  1  0  0  0  0
 12 14  2  0  0  0  0
 14 15  1  0  0  0  0
 15 16  1  0  0  0  0
 16 17  1  0  0  0  0
 17 18  2  0  0  0  0
 17 19  1  0  0  0  0
 17 20  1  0  0  0  0
 20 21  1  0  0  0  0
 21 22  2  0  0  0  0
 21 23  1  0  0  0  0
 21 24  1  0  0  0  0
  1 25  1  0  0  0  0
  1 26  1  0  0  0  0
  1 27  1  0  0  0  0
  3 28  1  0  0  0  0
  3 29  1  0  0  0  0
  3 30  1  0  0  0  0
  4 31  1  0  0  0  0
  5 32  1  0  0  0  0
  5 33  1  0  0  0  0
  6 34  1  0  0  0  0
  6 35  1  0  0  0  0
  8 36  1  0  0  0  0
  8 37  1  0  0  0  0
  8 38  1  0  0  0  0
  9 39  1  0  0  0  0
 10 40  1  0  0  0  0
 10 41  1  0  0  0  0
 11 42  1  0  0  0  0
 11 43  1  0  0  0  0
 13 44  1  0  0  0  0
 13 45  1  0  0  0  0
 13 46  1  0  0  0  0
 14 47  1  0  0  0  0
 15 48  1  0  0  0  0
 15 49  1  0  0  0  0
M  CHG  3  19  -1  23  -1  24  -1
M  END
> <BIOSOLVEIT.HYDE_ESTIMATED_AFFINITY_LOWER_BOUNDARY [nM]>
718280.389979

> <BIOSOLVEIT.HYDE_ESTIMATED_AFFINITY_UPPER_BOUNDARY [nM]>
71365403.554204

> <BIOSOLVEIT.HYDE_LIGAND_EFFICIENCY range: ++, +, 0, -, -->
--

> <BIOSOLVEIT.HYDE_LIGAND_LIPOPHILIC_EFFICIENCY range: ++, +, 0, -, -->
--

> <BIOSOLVEIT.INTER_CLASH range: red, yellow, green>
green

> <BIOSOLVEIT.INTRA_CLASH range: red, yellow, green>
yellow

> <BIOSOLVEIT.LOGP>
2.7359

> <BIOSOLVEIT.MOLECULAR WEIGHT>
379.304

> <BIOSOLVEIT.MOLECULE_CHECKSUM>
LTEyLjI0NDM7MC41MTAxNzk=

> <BIOSOLVEIT.TORSION_QUALITY range: red, yellow, green, not rotatable>
red

> <BIOSOLVEIT.TPSA>
121.78

$$$$
1LD8_FPP_3
foHydescor03232113463D 1   1.00000     0.00000     0
Hydescorer 1.1.0 fol007
 49 48  0  0  0  0            999 V2000
   17.9915  137.3300    0.8110 C   0  0  0  0  0  0  0  0  0  0  0  0
   16.6111  136.7721    1.0652 C   0  0  0  0  0  0  0  0  0  0  0  0
   15.8753  137.1547    2.3233 C   0  0  0  0  0  0  0  0  0  0  0  0
   15.9987  135.9467    0.1884 C   0  0  0  0  0  0  0  0  0  0  0  0
   16.5968  135.4883   -1.1211 C   0  0  0  0  0  0  0  0  0  0  0  0
   16.9492  133.9936   -1.0954 C   0  0  0  0  0  0  0  0  0  0  0  0
   16.5397  133.2957   -2.3767 C   0  0  0  0  0  0  0  0  0  0  0  0
   16.8017  131.8144   -2.5212 C   0  0  0  0  0  0  0  0  0  0  0  0
   15.9561  134.0165   -3.3609 C   0  0  0  0  0  0  0  0  0  0  0  0
   15.5034  133.4437   -4.6798 C   0  0  0  0  0  0  0  0  0  0  0  0
   14.0015  133.6749   -4.8808 C   0  0  0  0  0  0  0  0  0  0  0  0
   13.7446  135.0288   -5.5040 C   0  0  0  0  0  0  0  0  0  0  0  0
   13.2415  136.1567   -4.6336 C   0  0  0  0  0  0  0  0  0  0  0  0
   13.9648  135.1984   -6.8272 C   0  0  0  0  0  0  0  0  0  0  0  0
   13.7443  136.4972   -7.5529 C   0  0  0  0  0  0  0  0  0  0  0  0
   14.9380  136.8793   -8.1924 O   0  0  0  0  0  0  0  0  0  0  0  0
   15.4617  138.3590   -7.5224 P   0  0  0  0  0  0  0  0  0  0  0  0
   15.1223  138.3837   -6.0490 O   0  0  0  0  0  0  0  0  0  0  0  0
   14.6925  139.6630   -8.2809 O   0  5  0  0  0  0  0  0  0  0  0  0
   17.1474  138.5218   -7.6841 O   0  0  0  0  0  0  0  0  0  0  0  0
   17.7896  136.9673   -7.9414 P   0  0  0  0  0  0  0  0  0  0  0  0
   17.2871  136.0499   -6.8509 O   0  0  0  0  0  0  0  0  0  0  0  0
   17.2739  136.3657   -9.4364 O   0  5  0  0  0  0  0  0  0  0  0  0
   19.4816  136.9903   -7.8938 O   0  5  0  0  0  0  0  0  0  0  0  0
   18.3370  136.9807   -0.0600 H   0  0  0  0  0  0  0  0  0  0  0  0
   17.9461  138.3283    0.7752 H   0  0  0  0  0  0  0  0  0  0  0  0
   18.6052  137.0505    1.5493 H   0  0  0  0  0  0  0  0  0  0  0  0
   14.9831  136.7034    2.3380 H   0  0  0  0  0  0  0  0  0  0  0  0
   16.4068  136.8684    3.1205 H   0  0  0  0  0  0  0  0  0  0  0  0
   15.7478  138.1463    2.3464 H   0  0  0  0  0  0  0  0  0  0  0  0
   15.0847  135.6156    0.4227 H   0  0  0  0  0  0  0  0  0  0  0  0
   17.4289  136.0140   -1.2985 H   0  0  0  0  0  0  0  0  0  0  0  0
   15.9363  135.6526   -1.8537 H   0  0  0  0  0  0  0  0  0  0  0  0
   16.4760  133.5628   -0.3269 H   0  0  0  0  0  0  0  0  0  0  0  0
   17.9372  133.8962   -0.9755 H   0  0  0  0  0  0  0  0  0  0  0  0
   16.4773  131.5042   -3.4148 H   0  0  0  0  0  0  0  0  0  0  0  0
   17.7835  131.6405   -2.4441 H   0  0  0  0  0  0  0  0  0  0  0  0
   16.3178  131.3184   -1.8002 H   0  0  0  0  0  0  0  0  0  0  0  0
   15.8156  134.9940   -3.2034 H   0  0  0  0  0  0  0  0  0  0  0  0
   15.6893  132.4613   -4.6927 H   0  0  0  0  0  0  0  0  0  0  0  0
   16.0064  133.8880   -5.4211 H   0  0  0  0  0  0  0  0  0  0  0  0
   13.5413  133.6296   -3.9941 H   0  0  0  0  0  0  0  0  0  0  0  0
   13.6378  132.9632   -5.4818 H   0  0  0  0  0  0  0  0  0  0  0  0
   13.1223  136.9793   -5.1897 H   0  0  0  0  0  0  0  0  0  0  0  0
   12.3647  135.8989   -4.2276 H   0  0  0  0  0  0  0  0  0  0  0  0
   13.9044  136.3385   -3.9073 H   0  0  0  0  0  0  0  0  0  0  0  0
   14.2935  134.4145   -7.3541 H   0  0  0  0  0  0  0  0  0  0  0  0
   13.4745  137.2039   -6.8989 H   0  0  0  0  0  0  0  0  0  0  0  0
   13.0221  136.3807   -8.2348 H   0  0  0  0  0  0  0  0  0  0  0  0
  1  2  1  0  0  0  0
  2  3  1  0  0  0  0
  2  4  2  0  0  0  0
  4  5  1  0  0  0  0
  5  6  1  0  0  0  0
  6  7  1  0  0  0  0
  7  8  1  0  0  0  0
  7  9  2  0  0  0  0
  9 10  1  0  0  0  0
 10 11  1  0  0  0  0
 11 12  1  0  0  0  0
 12 13  1  0  0  0  0
 12 14  2  0  0  0  0
 14 15  1  0  0  0  0
 15 16  1  0  0  0  0
 16 17  1  0  0  0  0
 17 18  2  0  0  0  0
 17 19  1  0  0  0  0
 17 20  1  0  0  0  0
 20 21  1  0  0  0  0
 21 22  2  0  0  0  0
 21 23  1  0  0  0  0
 21 24  1  0  0  0  0
  1 25  1  0  0  0  0
  1 26  1  0  0  0  0
  1 27  1  0  0  0  0
  3 28  1  0  0  0  0
  3 29  1  0  0  0  0
  3 30  1  0  0  0  0
  4 31  1  0  0  0  0
  5 32  1  0  0  0  0
  5 33  1  0  0  0  0
  6 34  1  0  0  0  0
  6 35  1  0  0  0  0
  8 36  1  0  0  0  0
  8 37  1  0  0  0  0
  8 38  1  0  0  0  0
  9 39  1  0  0  0  0
 10 40  1  0  0  0  0
 10 41  1  0  0  0  0
 11 42  1  0  0  0  0
 11 43  1  0  0  0  0
 13 44  1  0  0  0  0
 13 45  1  0  0  0  0
 13 46  1  0  0  0  0
 14 47  1  0  0  0  0
 15 48  1  0  0  0  0
 15 49  1  0  0  0  0
M  CHG  3  19  -1  23  -1  24  -1
M  END
> <BIOSOLVEIT.HYDE_ESTIMATED_AFFINITY_LOWER_BOUNDARY [nM]>
14172585.808178

> <BIOSOLVEIT.HYDE_ESTIMATED_AFFINITY_UPPER_BOUNDARY [nM]>
1408130195.001392

> <BIOSOLVEIT.HYDE_LIGAND_EFFICIENCY range: ++, +, 0, -, -->
--

> <BIOSOLVEIT.HYDE_LIGAND_LIPOPHILIC_EFFICIENCY range: ++, +, 0, -, -->
--

> <BIOSOLVEIT.INTER_CLASH range: red, yellow, green>
green

> <BIOSOLVEIT.INTRA_CLASH range: red, yellow, green>
yellow

> <BIOSOLVEIT.LOGP>
2.7359

> <BIOSOLVEIT.MOLECULAR WEIGHT>
379.304

> <BIOSOLVEIT.MOLECULE_CHECKSUM>
LTQuODUxNTU7MC4yMDIxNDg=

> <BIOSOLVEIT.TORSION_QUALITY range: red, yellow, green, not rotatable>
yellow

> <BIOSOLVEIT.TPSA>
121.78

$$$$
