1JCQ_739_1
foHydescor03192112223D 1   1.00000     0.00000     0
Hydescorer 1.1.0 fol007
 73 73  0  0  0  0            999 V2000
   20.2094  127.6920   -3.3736 C   0  0  0  0  0  0  0  0  0  0  0  0
   20.7713  128.4726   -2.1776 C   0  0  0  0  0  0  0  0  0  0  0  0
   19.7171  129.0397   -1.1787 C   0  0  2  0  0  0  0  0  0  0  0  0
   18.2930  129.1099   -1.7689 C   0  0  0  0  0  0  0  0  0  0  0  0
   20.1717  130.3647   -0.4712 C   0  0  1  0  0  0  0  0  0  0  0  0
   20.4070  131.5187   -1.4771 C   0  0  0  0  0  0  0  0  0  0  0  0
   21.2802  132.4818   -0.9236 O   0  0  0  0  0  0  0  0  0  0  0  0
   22.6316  132.1500   -1.1970 C   0  0  1  0  0  0  0  0  0  0  0  0
   23.4367  133.4413   -1.3945 C   0  0  0  0  0  0  0  0  0  0  0  0
   22.6880  134.4230   -2.2583 C   0  0  0  0  0  0  0  0  0  0  0  0
   22.1664  135.5784   -1.6863 C   0  0  0  0  0  0  0  0  0  0  0  0
   21.4760  136.4802   -2.4892 C   0  0  0  0  0  0  0  0  0  0  0  0
   21.3093  136.2301   -3.8466 C   0  0  0  0  0  0  0  0  0  0  0  0
   21.8341  135.0715   -4.4102 C   0  0  0  0  0  0  0  0  0  0  0  0
   22.5262  134.1636   -3.6155 C   0  0  0  0  0  0  0  0  0  0  0  0
   23.2180  131.3762   -0.0453 C   0  0  0  0  0  0  0  0  0  0  0  0
   23.4360  130.1402   -0.1726 O   0  0  0  0  0  0  0  0  0  0  0  0
   23.4688  132.0338    1.2058 N   0  0  0  0  0  0  0  0  0  0  0  0
   23.9811  131.3335    2.3873 C   0  0  2  0  0  0  0  0  0  0  0  0
   24.2368  132.3306    3.5307 C   0  0  0  0  0  0  0  0  0  0  0  0
   24.3002  131.6306    4.8938 C   0  0  0  0  0  0  0  0  0  0  0  0
   25.8625  131.9338    5.7055 S   0  0  0  0  0  0  0  0  0  0  0  0
   25.6222  132.8844    7.1914 C   0  0  0  0  0  0  0  0  0  0  0  0
   26.7547  132.7030    4.7728 O   0  0  0  0  0  0  0  0  0  0  0  0
   26.5195  130.6266    6.0491 O   0  0  0  0  0  0  0  0  0  0  0  0
   25.2533  130.6205    2.0279 C   0  0  0  0  0  0  0  0  0  0  0  0
   25.2577  129.3702    1.8774 O   0  0  0  0  0  0  0  0  0  0  0  0
   26.4340  131.3344    1.8598 O   0  5  0  0  0  0  0  0  0  0  0  0
   19.2104  130.7598    0.5980 N   0  3  0  0  0  0  0  0  0  0  0  0
   19.8219  131.6484    1.6071 C   0  0  0  0  0  0  0  0  0  0  0  0
   18.9088  132.8520    1.9555 C   0  0  1  0  0  0  0  0  0  0  0  0
   19.3953  133.5572    3.1522 N   0  0  0  0  0  0  0  0  0  0  0  0
   18.8299  133.8141    0.7509 C   0  0  0  0  0  0  0  0  0  0  0  0
   19.9899  135.1599    0.9126 S   0  0  0  0  0  0  0  0  0  0  0  0
   20.9636  127.3741   -3.9482 H   0  0  0  0  0  0  0  0  0  0  0  0
   19.6877  126.9055   -3.0431 H   0  0  0  0  0  0  0  0  0  0  0  0
   19.6108  128.2878   -3.9090 H   0  0  0  0  0  0  0  0  0  0  0  0
   21.2997  129.2425   -2.5351 H   0  0  0  0  0  0  0  0  0  0  0  0
   21.3767  127.8602   -1.6692 H   0  0  0  0  0  0  0  0  0  0  0  0
   19.6615  128.3606   -0.4467 H   0  0  0  0  0  0  0  0  0  0  0  0
   17.6660  129.4800   -1.0834 H   0  0  0  0  0  0  0  0  0  0  0  0
   18.2947  129.7032   -2.5739 H   0  0  0  0  0  0  0  0  0  0  0  0
   17.9956  128.1921   -2.0319 H   0  0  0  0  0  0  0  0  0  0  0  0
   21.0475  130.1769   -0.0267 H   0  0  0  0  0  0  0  0  0  0  0  0
   19.5319  131.9520   -1.6925 H   0  0  0  0  0  0  0  0  0  0  0  0
   20.8110  131.1495   -2.3140 H   0  0  0  0  0  0  0  0  0  0  0  0
   22.6779  131.5970   -2.0289 H   0  0  0  0  0  0  0  0  0  0  0  0
   24.3076  133.2190   -1.8329 H   0  0  0  0  0  0  0  0  0  0  0  0
   23.6095  133.8577   -0.5019 H   0  0  0  0  0  0  0  0  0  0  0  0
   22.2864  135.7586   -0.7100 H   0  0  0  0  0  0  0  0  0  0  0  0
   21.0970  137.3138   -2.0875 H   0  0  0  0  0  0  0  0  0  0  0  0
   20.8120  136.8831   -4.4178 H   0  0  0  0  0  0  0  0  0  0  0  0
   21.7138  134.8913   -5.3864 H   0  0  0  0  0  0  0  0  0  0  0  0
   22.9050  133.3299   -4.0172 H   0  0  0  0  0  0  0  0  0  0  0  0
   23.2856  133.0145    1.2745 H   0  0  0  0  0  0  0  0  0  0  0  0
   23.3040  130.6611    2.6865 H   0  0  0  0  0  0  0  0  0  0  0  0
   23.4963  133.0023    3.5460 H   0  0  0  0  0  0  0  0  0  0  0  0
   25.1061  132.7965    3.3654 H   0  0  0  0  0  0  0  0  0  0  0  0
   24.1880  130.6459    4.7601 H   0  0  0  0  0  0  0  0  0  0  0  0
   23.5603  131.9750    5.4718 H   0  0  0  0  0  0  0  0  0  0  0  0
   26.5058  133.0441    7.6316 H   0  0  0  0  0  0  0  0  0  0  0  0
   25.2010  133.7617    6.9614 H   0  0  0  0  0  0  0  0  0  0  0  0
   25.0248  132.3813    7.8159 H   0  0  0  0  0  0  0  0  0  0  0  0
   18.8817  129.9335    1.0552 H   0  0  0  0  0  0  0  0  0  0  0  0
   18.4393  131.2365    0.1759 H   0  0  0  0  0  0  0  0  0  0  0  0
   20.6889  131.9947    1.2487 H   0  0  0  0  0  0  0  0  0  0  0  0
   19.9922  131.1214    2.4397 H   0  0  0  0  0  0  0  0  0  0  0  0
   17.9896  132.5066    2.1444 H   0  0  0  0  0  0  0  0  0  0  0  0
   18.6158  133.8915    3.6820 H   0  0  0  0  0  0  0  0  0  0  0  0
   19.9348  132.9291    3.7129 H   0  0  0  0  0  0  0  0  0  0  0  0
   17.9042  134.1880    0.6937 H   0  0  0  0  0  0  0  0  0  0  0  0
   19.0364  133.3058   -0.0851 H   0  0  0  0  0  0  0  0  0  0  0  0
   20.9183  134.7939    0.9774 H   0  0  0  0  0  0  0  0  0  0  0  0
  1  2  1  0  0  0  0
  2  3  1  0  0  0  0
  3  4  1  0  0  0  0
  3  5  1  0  0  0  0
  5  6  1  0  0  0  0
  6  7  1  0  0  0  0
  7  8  1  0  0  0  0
  8  9  1  0  0  0  0
  9 10  1  0  0  0  0
 10 11  2  0  0  0  0
 11 12  1  0  0  0  0
 12 13  2  0  0  0  0
 13 14  1  0  0  0  0
 14 15  2  0  0  0  0
  8 16  1  0  0  0  0
 16 17  2  0  0  0  0
 16 18  1  0  0  0  0
 18 19  1  0  0  0  0
 19 20  1  0  0  0  0
 20 21  1  0  0  0  0
 21 22  1  0  0  0  0
 22 23  1  0  0  0  0
 22 24  2  0  0  0  0
 22 25  2  0  0  0  0
 19 26  1  0  0  0  0
 26 27  2  0  0  0  0
 26 28  1  0  0  0  0
  5 29  1  0  0  0  0
 29 30  1  0  0  0  0
 30 31  1  0  0  0  0
 31 32  1  0  0  0  0
 31 33  1  0  0  0  0
 33 34  1  0  0  0  0
 15 10  1  0  0  0  0
  1 35  1  0  0  0  0
  1 36  1  0  0  0  0
  1 37  1  0  0  0  0
  2 38  1  0  0  0  0
  2 39  1  0  0  0  0
  3 40  1  0  0  0  0
  4 41  1  0  0  0  0
  4 42  1  0  0  0  0
  4 43  1  0  0  0  0
  5 44  1  0  0  0  0
  6 45  1  0  0  0  0
  6 46  1  0  0  0  0
  8 47  1  0  0  0  0
  9 48  1  0  0  0  0
  9 49  1  0  0  0  0
 11 50  1  0  0  0  0
 12 51  1  0  0  0  0
 13 52  1  0  0  0  0
 14 53  1  0  0  0  0
 15 54  1  0  0  0  0
 18 55  1  0  0  0  0
 19 56  1  0  0  0  0
 20 57  1  0  0  0  0
 20 58  1  0  0  0  0
 21 59  1  0  0  0  0
 21 60  1  0  0  0  0
 23 61  1  0  0  0  0
 23 62  1  0  0  0  0
 23 63  1  0  0  0  0
 29 64  1  0  0  0  0
 29 65  1  0  0  0  0
 30 66  1  0  0  0  0
 30 67  1  0  0  0  0
 31 68  1  0  0  0  0
 34 73  1  0  0  0  0
 32 69  1  0  0  0  0
 32 70  1  0  0  0  0
 33 71  1  0  0  0  0
 33 72  1  0  0  0  0
M  CHG  2  28  -1  29   1
M  END
> <BIOSOLVEIT.HYDE_ESTIMATED_AFFINITY_LOWER_BOUNDARY [nM]>
957560909.891042

> <BIOSOLVEIT.HYDE_ESTIMATED_AFFINITY_UPPER_BOUNDARY [nM]>
95139337945.835815

> <BIOSOLVEIT.HYDE_LIGAND_EFFICIENCY range: ++, +, 0, -, -->
--

> <BIOSOLVEIT.HYDE_LIGAND_LIPOPHILIC_EFFICIENCY range: ++, +, 0, -, -->
--

> <BIOSOLVEIT.INTER_CLASH range: red, yellow, green>
green

> <BIOSOLVEIT.INTRA_CLASH range: red, yellow, green>
green

> <BIOSOLVEIT.LOGP>
-0.4503

> <BIOSOLVEIT.MOLECULAR WEIGHT>
517.706

> <BIOSOLVEIT.MOLECULE_CHECKSUM>
NS41OTI1OzA=

> <BIOSOLVEIT.TORSION_QUALITY range: red, yellow, green, not rotatable>
red

> <BIOSOLVEIT.TPSA>
155.23

$$$$
1JCQ_739_2
foHydescor03192112223D 1   1.00000     0.00000     0
Hydescorer 1.1.0 fol007
 73 73  0  0  0  0            999 V2000
   21.4125  127.7704   -2.6741 C   0  0  0  0  0  0  0  0  0  0  0  0
   19.9056  128.0494   -2.5898 C   0  0  0  0  0  0  0  0  0  0  0  0
   19.3686  128.4721   -1.1886 C   0  0  2  0  0  0  0  0  0  0  0  0
   17.8279  128.5033   -1.1093 C   0  0  0  0  0  0  0  0  0  0  0  0
   20.0549  129.7623   -0.6163 C   0  0  1  0  0  0  0  0  0  0  0  0
   20.5081  130.7337   -1.7344 C   0  0  0  0  0  0  0  0  0  0  0  0
   21.0218  131.9238   -1.1719 O   0  0  0  0  0  0  0  0  0  0  0  0
   22.4369  131.9505   -1.2597 C   0  0  1  0  0  0  0  0  0  0  0  0
   22.9138  133.4090   -1.2589 C   0  0  0  0  0  0  0  0  0  0  0  0
   24.3767  133.5037   -1.6076 C   0  0  0  0  0  0  0  0  0  0  0  0
   24.7610  134.1580   -2.7731 C   0  0  0  0  0  0  0  0  0  0  0  0
   26.1128  134.2415   -3.0893 C   0  0  0  0  0  0  0  0  0  0  0  0
   27.0683  133.6782   -2.2510 C   0  0  0  0  0  0  0  0  0  0  0  0
   26.6745  133.0252   -1.0873 C   0  0  0  0  0  0  0  0  0  0  0  0
   25.3250  132.9365   -0.7624 C   0  0  0  0  0  0  0  0  0  0  0  0
   23.0423  131.2345   -0.0809 C   0  0  0  0  0  0  0  0  0  0  0  0
   23.2167  129.9860   -0.1333 O   0  0  0  0  0  0  0  0  0  0  0  0
   23.3614  131.9637    1.1136 N   0  0  0  0  0  0  0  0  0  0  0  0
   23.8964  131.3254    2.3200 C   0  0  2  0  0  0  0  0  0  0  0  0
   24.1095  132.3709    3.4282 C   0  0  0  0  0  0  0  0  0  0  0  0
   24.8157  131.7705    4.6500 C   0  0  0  0  0  0  0  0  0  0  0  0
   25.9842  132.9238    5.3542 S   0  0  0  0  0  0  0  0  0  0  0  0
   25.1458  134.3706    5.9650 C   0  0  0  0  0  0  0  0  0  0  0  0
   26.9610  133.3382    4.2903 O   0  0  0  0  0  0  0  0  0  0  0  0
   26.7321  132.2669    6.4803 O   0  0  0  0  0  0  0  0  0  0  0  0
   25.1964  130.6502    1.9884 C   0  0  0  0  0  0  0  0  0  0  0  0
   25.2353  129.4043    1.8094 O   0  0  0  0  0  0  0  0  0  0  0  0
   26.3650  131.3946    1.8776 O   0  5  0  0  0  0  0  0  0  0  0  0
   19.1747  130.4439    0.3755 N   0  3  0  0  0  0  0  0  0  0  0  0
   19.9207  131.3740    1.2476 C   0  0  0  0  0  0  0  0  0  0  0  0
   19.2702  132.7807    1.2931 C   0  0  1  0  0  0  0  0  0  0  0  0
   18.7169  133.0656    2.6267 N   0  0  0  0  0  0  0  0  0  0  0  0
   20.3095  133.8503    0.8949 C   0  0  0  0  0  0  0  0  0  0  0  0
   21.0762  134.5823    2.3299 S   0  0  0  0  0  0  0  0  0  0  0  0
   21.6513  127.5088   -3.6093 H   0  0  0  0  0  0  0  0  0  0  0  0
   21.9188  128.5941   -2.4188 H   0  0  0  0  0  0  0  0  0  0  0  0
   21.6492  127.0265   -2.0492 H   0  0  0  0  0  0  0  0  0  0  0  0
   19.4241  127.2169   -2.8641 H   0  0  0  0  0  0  0  0  0  0  0  0
   19.6936  128.7845   -3.2337 H   0  0  0  0  0  0  0  0  0  0  0  0
   19.6455  127.7355   -0.5715 H   0  0  0  0  0  0  0  0  0  0  0  0
   17.5470  128.7802   -0.1904 H   0  0  0  0  0  0  0  0  0  0  0  0
   17.4728  129.1570   -1.7775 H   0  0  0  0  0  0  0  0  0  0  0  0
   17.4655  127.5929   -1.3085 H   0  0  0  0  0  0  0  0  0  0  0  0
   20.8771  129.4683   -0.1289 H   0  0  0  0  0  0  0  0  0  0  0  0
   19.7255  130.9549   -2.3163 H   0  0  0  0  0  0  0  0  0  0  0  0
   21.2190  130.2951   -2.2842 H   0  0  0  0  0  0  0  0  0  0  0  0
   22.7274  131.5047   -2.1063 H   0  0  0  0  0  0  0  0  0  0  0  0
   22.7693  133.7992   -0.3496 H   0  0  0  0  0  0  0  0  0  0  0  0
   22.3840  133.9258   -1.9315 H   0  0  0  0  0  0  0  0  0  0  0  0
   24.0740  134.5633   -3.3763 H   0  0  0  0  0  0  0  0  0  0  0  0
   26.3994  134.7097   -3.9251 H   0  0  0  0  0  0  0  0  0  0  0  0
   28.0385  133.7424   -2.4845 H   0  0  0  0  0  0  0  0  0  0  0  0
   27.3616  132.6197   -0.4844 H   0  0  0  0  0  0  0  0  0  0  0  0
   25.0382  132.4680    0.0733 H   0  0  0  0  0  0  0  0  0  0  0  0
   23.2120  132.9525    1.1233 H   0  0  0  0  0  0  0  0  0  0  0  0
   23.2449  130.6382    2.6412 H   0  0  0  0  0  0  0  0  0  0  0  0
   23.2194  132.7278    3.7119 H   0  0  0  0  0  0  0  0  0  0  0  0
   24.6679  133.1173    3.0660 H   0  0  0  0  0  0  0  0  0  0  0  0
   25.3025  130.9428    4.3709 H   0  0  0  0  0  0  0  0  0  0  0  0
   24.1310  131.5377    5.3406 H   0  0  0  0  0  0  0  0  0  0  0  0
   25.8146  135.0038    6.3549 H   0  0  0  0  0  0  0  0  0  0  0  0
   24.6623  134.8182    5.2127 H   0  0  0  0  0  0  0  0  0  0  0  0
   24.4897  134.1027    6.6704 H   0  0  0  0  0  0  0  0  0  0  0  0
   18.7372  129.7495    0.9468 H   0  0  0  0  0  0  0  0  0  0  0  0
   18.4740  130.9591   -0.1181 H   0  0  0  0  0  0  0  0  0  0  0  0
   20.8547  131.4618    0.9010 H   0  0  0  0  0  0  0  0  0  0  0  0
   19.9430  130.9991    2.1744 H   0  0  0  0  0  0  0  0  0  0  0  0
   18.5226  132.8045    0.6294 H   0  0  0  0  0  0  0  0  0  0  0  0
   18.2080  133.9261    2.5996 H   0  0  0  0  0  0  0  0  0  0  0  0
   18.1034  132.3241    2.8984 H   0  0  0  0  0  0  0  0  0  0  0  0
   19.8525  134.5676    0.3690 H   0  0  0  0  0  0  0  0  0  0  0  0
   21.0163  133.4227    0.3312 H   0  0  0  0  0  0  0  0  0  0  0  0
   21.5010  133.8655    2.8829 H   0  0  0  0  0  0  0  0  0  0  0  0
  1  2  1  0  0  0  0
  2  3  1  0  0  0  0
  3  4  1  0  0  0  0
  3  5  1  0  0  0  0
  5  6  1  0  0  0  0
  6  7  1  0  0  0  0
  7  8  1  0  0  0  0
  8  9  1  0  0  0  0
  9 10  1  0  0  0  0
 10 11  2  0  0  0  0
 11 12  1  0  0  0  0
 12 13  2  0  0  0  0
 13 14  1  0  0  0  0
 14 15  2  0  0  0  0
  8 16  1  0  0  0  0
 16 17  2  0  0  0  0
 16 18  1  0  0  0  0
 18 19  1  0  0  0  0
 19 20  1  0  0  0  0
 20 21  1  0  0  0  0
 21 22  1  0  0  0  0
 22 23  1  0  0  0  0
 22 24  2  0  0  0  0
 22 25  2  0  0  0  0
 19 26  1  0  0  0  0
 26 27  2  0  0  0  0
 26 28  1  0  0  0  0
  5 29  1  0  0  0  0
 29 30  1  0  0  0  0
 30 31  1  0  0  0  0
 31 32  1  0  0  0  0
 31 33  1  0  0  0  0
 33 34  1  0  0  0  0
 15 10  1  0  0  0  0
  1 35  1  0  0  0  0
  1 36  1  0  0  0  0
  1 37  1  0  0  0  0
  2 38  1  0  0  0  0
  2 39  1  0  0  0  0
  3 40  1  0  0  0  0
  4 41  1  0  0  0  0
  4 42  1  0  0  0  0
  4 43  1  0  0  0  0
  5 44  1  0  0  0  0
  6 45  1  0  0  0  0
  6 46  1  0  0  0  0
  8 47  1  0  0  0  0
  9 48  1  0  0  0  0
  9 49  1  0  0  0  0
 11 50  1  0  0  0  0
 12 51  1  0  0  0  0
 13 52  1  0  0  0  0
 14 53  1  0  0  0  0
 15 54  1  0  0  0  0
 18 55  1  0  0  0  0
 19 56  1  0  0  0  0
 20 57  1  0  0  0  0
 20 58  1  0  0  0  0
 21 59  1  0  0  0  0
 21 60  1  0  0  0  0
 23 61  1  0  0  0  0
 23 62  1  0  0  0  0
 23 63  1  0  0  0  0
 29 64  1  0  0  0  0
 29 65  1  0  0  0  0
 30 66  1  0  0  0  0
 30 67  1  0  0  0  0
 31 68  1  0  0  0  0
 34 73  1  0  0  0  0
 32 69  1  0  0  0  0
 32 70  1  0  0  0  0
 33 71  1  0  0  0  0
 33 72  1  0  0  0  0
M  CHG  2  28  -1  29   1
M  END
> <BIOSOLVEIT.HYDE_ESTIMATED_AFFINITY_LOWER_BOUNDARY [nM]>
34383370.873119

> <BIOSOLVEIT.HYDE_ESTIMATED_AFFINITY_UPPER_BOUNDARY [nM]>
3416191186.821612

> <BIOSOLVEIT.HYDE_LIGAND_EFFICIENCY range: ++, +, 0, -, -->
--

> <BIOSOLVEIT.HYDE_LIGAND_LIPOPHILIC_EFFICIENCY range: ++, +, 0, -, -->
--

> <BIOSOLVEIT.INTER_CLASH range: red, yellow, green>
yellow

> <BIOSOLVEIT.INTRA_CLASH range: red, yellow, green>
red

> <BIOSOLVEIT.LOGP>
-0.4503

> <BIOSOLVEIT.MOLECULAR WEIGHT>
517.706

> <BIOSOLVEIT.MOLECULE_CHECKSUM>
LTIuNjU0NTQ7MC4wNzgwNzQ2

> <BIOSOLVEIT.TORSION_QUALITY range: red, yellow, green, not rotatable>
red

> <BIOSOLVEIT.TPSA>
155.23

$$$$
1JCQ_739_3
foHydescor03192112223D 1   1.00000     0.00000     0
Hydescorer 1.1.0 fol007
 73 73  0  0  0  0            999 V2000
   19.9443  127.8312   -3.5372 C   0  0  0  0  0  0  0  0  0  0  0  0
   20.5088  127.9011   -2.1117 C   0  0  0  0  0  0  0  0  0  0  0  0
   19.5603  128.5067   -1.0327 C   0  0  2  0  0  0  0  0  0  0  0  0
   18.0833  128.5566   -1.4774 C   0  0  0  0  0  0  0  0  0  0  0  0
   20.0810  129.8567   -0.4254 C   0  0  1  0  0  0  0  0  0  0  0  0
   20.5052  130.8694   -1.5179 C   0  0  0  0  0  0  0  0  0  0  0  0
   21.0574  132.0274   -0.9260 O   0  0  0  0  0  0  0  0  0  0  0  0
   22.4720  132.0169   -1.0271 C   0  0  1  0  0  0  0  0  0  0  0  0
   22.9905  133.4604   -0.9810 C   0  0  0  0  0  0  0  0  0  0  0  0
   24.4163  133.5424   -1.4617 C   0  0  0  0  0  0  0  0  0  0  0  0
   24.6993  134.2000   -2.6540 C   0  0  0  0  0  0  0  0  0  0  0  0
   26.0173  134.2717   -3.0923 C   0  0  0  0  0  0  0  0  0  0  0  0
   27.0394  133.6935   -2.3481 C   0  0  0  0  0  0  0  0  0  0  0  0
   26.7468  133.0372   -1.1567 C   0  0  0  0  0  0  0  0  0  0  0  0
   25.4317  132.9602   -0.7100 C   0  0  0  0  0  0  0  0  0  0  0  0
   23.0675  131.2435    0.1201 C   0  0  0  0  0  0  0  0  0  0  0  0
   23.1566  129.9873    0.0443 O   0  0  0  0  0  0  0  0  0  0  0  0
   23.4739  131.9308    1.3131 N   0  0  0  0  0  0  0  0  0  0  0  0
   24.0051  131.2391    2.4913 C   0  0  2  0  0  0  0  0  0  0  0  0
   24.2859  132.2456    3.6205 C   0  0  0  0  0  0  0  0  0  0  0  0
   24.3881  131.5556    4.9863 C   0  0  0  0  0  0  0  0  0  0  0  0
   25.9834  131.8412    5.7382 S   0  0  0  0  0  0  0  0  0  0  0  0
   25.8066  132.7609    7.2522 C   0  0  0  0  0  0  0  0  0  0  0  0
   26.8371  132.6292    4.7853 O   0  0  0  0  0  0  0  0  0  0  0  0
   26.6525  130.5268    6.0271 O   0  0  0  0  0  0  0  0  0  0  0  0
   25.2675  130.5176    2.1151 C   0  0  0  0  0  0  0  0  0  0  0  0
   25.2682  129.2643    1.9925 O   0  0  0  0  0  0  0  0  0  0  0  0
   26.4436  131.2270    1.9005 O   0  5  0  0  0  0  0  0  0  0  0  0
   19.0794  130.4479    0.5077 N   0  3  0  0  0  0  0  0  0  0  0  0
   19.7052  131.2824    1.5536 C   0  0  0  0  0  0  0  0  0  0  0  0
   19.6282  132.7941    1.2182 C   0  0  1  0  0  0  0  0  0  0  0  0
   18.2901  133.3338    1.5089 N   0  0  0  0  0  0  0  0  0  0  0  0
   20.7085  133.5610    2.0104 C   0  0  0  0  0  0  0  0  0  0  0  0
   21.0467  132.7797    3.5783 S   0  0  0  0  0  0  0  0  0  0  0  0
   20.6277  127.4298   -4.1470 H   0  0  0  0  0  0  0  0  0  0  0  0
   19.1200  127.2651   -3.5419 H   0  0  0  0  0  0  0  0  0  0  0  0
   19.7175  128.7530   -3.8515 H   0  0  0  0  0  0  0  0  0  0  0  0
   21.3386  128.4586   -2.1378 H   0  0  0  0  0  0  0  0  0  0  0  0
   20.7410  126.9707   -1.8281 H   0  0  0  0  0  0  0  0  0  0  0  0
   19.5811  127.8556   -0.2740 H   0  0  0  0  0  0  0  0  0  0  0  0
   17.5283  128.9530   -0.7460 H   0  0  0  0  0  0  0  0  0  0  0  0
   18.0017  129.1193   -2.3000 H   0  0  0  0  0  0  0  0  0  0  0  0
   17.7630  127.6300   -1.6741 H   0  0  0  0  0  0  0  0  0  0  0  0
   20.8965  129.6436    0.1127 H   0  0  0  0  0  0  0  0  0  0  0  0
   19.7042  131.1256   -2.0590 H   0  0  0  0  0  0  0  0  0  0  0  0
   21.1880  130.4457   -2.1131 H   0  0  0  0  0  0  0  0  0  0  0  0
   22.7417  131.5926   -1.8915 H   0  0  0  0  0  0  0  0  0  0  0  0
   22.9439  133.7939   -0.0395 H   0  0  0  0  0  0  0  0  0  0  0  0
   22.4155  134.0325   -1.5661 H   0  0  0  0  0  0  0  0  0  0  0  0
   23.9643  134.6162   -3.1894 H   0  0  0  0  0  0  0  0  0  0  0  0
   26.2312  134.7422   -3.9484 H   0  0  0  0  0  0  0  0  0  0  0  0
   27.9849  133.7492   -2.6690 H   0  0  0  0  0  0  0  0  0  0  0  0
   27.4819  132.6208   -0.6215 H   0  0  0  0  0  0  0  0  0  0  0  0
   25.2177  132.4895    0.1459 H   0  0  0  0  0  0  0  0  0  0  0  0
   23.3908  132.9269    1.3416 H   0  0  0  0  0  0  0  0  0  0  0  0
   23.3311  130.5723    2.8092 H   0  0  0  0  0  0  0  0  0  0  0  0
   23.5429  132.9141    3.6505 H   0  0  0  0  0  0  0  0  0  0  0  0
   25.1484  132.7142    3.4293 H   0  0  0  0  0  0  0  0  0  0  0  0
   24.2562  130.5718    4.8652 H   0  0  0  0  0  0  0  0  0  0  0  0
   23.6751  131.9160    5.5877 H   0  0  0  0  0  0  0  0  0  0  0  0
   26.7080  132.9110    7.6582 H   0  0  0  0  0  0  0  0  0  0  0  0
   25.3772  133.6429    7.0582 H   0  0  0  0  0  0  0  0  0  0  0  0
   25.2351  132.2453    7.8906 H   0  0  0  0  0  0  0  0  0  0  0  0
   18.5747  129.7058    0.9488 H   0  0  0  0  0  0  0  0  0  0  0  0
   18.4460  131.0149   -0.0188 H   0  0  0  0  0  0  0  0  0  0  0  0
   20.6662  131.0205    1.6427 H   0  0  0  0  0  0  0  0  0  0  0  0
   19.2337  131.1201    2.4204 H   0  0  0  0  0  0  0  0  0  0  0  0
   19.8104  132.9106    0.2418 H   0  0  0  0  0  0  0  0  0  0  0  0
   17.6486  133.0321    0.8036 H   0  0  0  0  0  0  0  0  0  0  0  0
   17.9839  133.0031    2.4016 H   0  0  0  0  0  0  0  0  0  0  0  0
   20.3899  134.4946    2.1744 H   0  0  0  0  0  0  0  0  0  0  0  0
   21.5505  133.5860    1.4713 H   0  0  0  0  0  0  0  0  0  0  0  0
   21.6528  133.3640    4.1180 H   0  0  0  0  0  0  0  0  0  0  0  0
  1  2  1  0  0  0  0
  2  3  1  0  0  0  0
  3  4  1  0  0  0  0
  3  5  1  0  0  0  0
  5  6  1  0  0  0  0
  6  7  1  0  0  0  0
  7  8  1  0  0  0  0
  8  9  1  0  0  0  0
  9 10  1  0  0  0  0
 10 11  2  0  0  0  0
 11 12  1  0  0  0  0
 12 13  2  0  0  0  0
 13 14  1  0  0  0  0
 14 15  2  0  0  0  0
  8 16  1  0  0  0  0
 16 17  2  0  0  0  0
 16 18  1  0  0  0  0
 18 19  1  0  0  0  0
 19 20  1  0  0  0  0
 20 21  1  0  0  0  0
 21 22  1  0  0  0  0
 22 23  1  0  0  0  0
 22 24  2  0  0  0  0
 22 25  2  0  0  0  0
 19 26  1  0  0  0  0
 26 27  2  0  0  0  0
 26 28  1  0  0  0  0
  5 29  1  0  0  0  0
 29 30  1  0  0  0  0
 30 31  1  0  0  0  0
 31 32  1  0  0  0  0
 31 33  1  0  0  0  0
 33 34  1  0  0  0  0
 15 10  1  0  0  0  0
  1 35  1  0  0  0  0
  1 36  1  0  0  0  0
  1 37  1  0  0  0  0
  2 38  1  0  0  0  0
  2 39  1  0  0  0  0
  3 40  1  0  0  0  0
  4 41  1  0  0  0  0
  4 42  1  0  0  0  0
  4 43  1  0  0  0  0
  5 44  1  0  0  0  0
  6 45  1  0  0  0  0
  6 46  1  0  0  0  0
  8 47  1  0  0  0  0
  9 48  1  0  0  0  0
  9 49  1  0  0  0  0
 11 50  1  0  0  0  0
 12 51  1  0  0  0  0
 13 52  1  0  0  0  0
 14 53  1  0  0  0  0
 15 54  1  0  0  0  0
 18 55  1  0  0  0  0
 19 56  1  0  0  0  0
 20 57  1  0  0  0  0
 20 58  1  0  0  0  0
 21 59  1  0  0  0  0
 21 60  1  0  0  0  0
 23 61  1  0  0  0  0
 23 62  1  0  0  0  0
 23 63  1  0  0  0  0
 29 64  1  0  0  0  0
 29 65  1  0  0  0  0
 30 66  1  0  0  0  0
 30 67  1  0  0  0  0
 31 68  1  0  0  0  0
 34 73  1  0  0  0  0
 32 69  1  0  0  0  0
 32 70  1  0  0  0  0
 33 71  1  0  0  0  0
 33 72  1  0  0  0  0
M  CHG  2  28  -1  29   1
M  END
> <BIOSOLVEIT.HYDE_ESTIMATED_AFFINITY_LOWER_BOUNDARY [nM]>
10024723.733085

> <BIOSOLVEIT.HYDE_ESTIMATED_AFFINITY_UPPER_BOUNDARY [nM]>
996015573.739439

> <BIOSOLVEIT.HYDE_LIGAND_EFFICIENCY range: ++, +, 0, -, -->
--

> <BIOSOLVEIT.HYDE_LIGAND_LIPOPHILIC_EFFICIENCY range: ++, +, 0, -, -->
--

> <BIOSOLVEIT.INTER_CLASH range: red, yellow, green>
yellow

> <BIOSOLVEIT.INTRA_CLASH range: red, yellow, green>
red

> <BIOSOLVEIT.LOGP>
-0.4503

> <BIOSOLVEIT.MOLECULAR WEIGHT>
517.706

> <BIOSOLVEIT.MOLECULE_CHECKSUM>
LTUuNzA5OTswLjE2NzkzOA==

> <BIOSOLVEIT.TORSION_QUALITY range: red, yellow, green, not rotatable>
red

> <BIOSOLVEIT.TPSA>
155.23

$$$$
2IEJ_FII_1
foHydescor03192112223D 1   1.00000     0.00000     0
Hydescorer 1.1.0 fol007
 52 51  0  0  0  0            999 V2000
   15.5637  135.0659   -1.2903 C   0  0  0  0  0  0  0  0  0  0  0  0
   15.7015  134.1201   -2.4598 C   0  0  0  0  0  0  0  0  0  0  0  0
   14.5408  133.2432   -2.8527 C   0  0  0  0  0  0  0  0  0  0  0  0
   16.8467  134.0373   -3.1697 C   0  0  0  0  0  0  0  0  0  0  0  0
   18.0685  134.8689   -2.8619 C   0  0  0  0  0  0  0  0  0  0  0  0
   18.3313  135.9005   -3.9649 C   0  0  0  0  0  0  0  0  0  0  0  0
   19.8134  136.0236   -4.2466 C   0  0  0  0  0  0  0  0  0  0  0  0
   20.2820  136.9842   -5.3149 C   0  0  0  0  0  0  0  0  0  0  0  0
   20.6810  135.2609   -3.5423 C   0  0  0  0  0  0  0  0  0  0  0  0
   22.1781  135.2853   -3.7226 C   0  0  0  0  0  0  0  0  0  0  0  0
   22.8828  134.6863   -2.5002 C   0  0  0  0  0  0  0  0  0  0  0  0
   23.9278  133.6772   -2.9221 C   0  0  0  0  0  0  0  0  0  0  0  0
   23.4901  132.3655   -3.5302 C   0  0  0  0  0  0  0  0  0  0  0  0
   25.2351  133.9657   -2.7376 C   0  0  0  0  0  0  0  0  0  0  0  0
   26.3486  133.0307   -3.1227 C   0  0  0  0  0  0  0  0  0  0  0  0
   26.9190  132.4811   -1.9595 O   0  0  0  0  0  0  0  0  0  0  0  0
   25.9807  131.6586   -1.4197 N   0  0  0  0  0  0  0  0  0  0  0  0
   25.2624  132.0406   -0.2422 C   0  0  0  0  0  0  0  0  0  0  0  0
   25.4972  133.1509    0.3061 O   0  0  0  0  0  0  0  0  0  0  0  0
   24.2722  131.1042    0.3739 C   0  0  0  0  0  0  0  0  0  0  0  0
   24.8600  130.5672    2.0077 P   0  0  0  0  0  0  0  0  0  0  0  0
   25.2977  129.1217    1.9444 O   0  0  0  0  0  0  0  0  0  0  0  0
   26.1657  131.5297    2.4856 O   0  5  0  0  0  0  0  0  0  0  0  0
   23.6072  130.7244    3.1320 O   0  5  0  0  0  0  0  0  0  0  0  0
   16.4189  135.5693   -1.1662 H   0  0  0  0  0  0  0  0  0  0  0  0
   14.8204  135.7107   -1.4688 H   0  0  0  0  0  0  0  0  0  0  0  0
   15.3607  134.5442   -0.4618 H   0  0  0  0  0  0  0  0  0  0  0  0
   14.7980  132.6828   -3.6399 H   0  0  0  0  0  0  0  0  0  0  0  0
   14.2972  132.6493   -2.0860 H   0  0  0  0  0  0  0  0  0  0  0  0
   13.7569  133.8158   -3.0931 H   0  0  0  0  0  0  0  0  0  0  0  0
   16.8875  133.3953   -3.9353 H   0  0  0  0  0  0  0  0  0  0  0  0
   18.8622  134.2655   -2.7840 H   0  0  0  0  0  0  0  0  0  0  0  0
   17.9271  135.3473   -1.9952 H   0  0  0  0  0  0  0  0  0  0  0  0
   17.9785  136.7894   -3.6728 H   0  0  0  0  0  0  0  0  0  0  0  0
   17.8620  135.6137   -4.8001 H   0  0  0  0  0  0  0  0  0  0  0  0
   21.2793  136.9499   -5.3799 H   0  0  0  0  0  0  0  0  0  0  0  0
   19.8816  136.7261   -6.1942 H   0  0  0  0  0  0  0  0  0  0  0  0
   19.9952  137.9124   -5.0777 H   0  0  0  0  0  0  0  0  0  0  0  0
   20.3041  134.6390   -2.8558 H   0  0  0  0  0  0  0  0  0  0  0  0
   22.4785  136.2315   -3.8434 H   0  0  0  0  0  0  0  0  0  0  0  0
   22.4194  134.7528   -4.5340 H   0  0  0  0  0  0  0  0  0  0  0  0
   22.2053  134.2335   -1.9206 H   0  0  0  0  0  0  0  0  0  0  0  0
   23.3253  135.4202   -1.9848 H   0  0  0  0  0  0  0  0  0  0  0  0
   24.2954  131.8158   -3.7522 H   0  0  0  0  0  0  0  0  0  0  0  0
   22.9178  131.8698   -2.8769 H   0  0  0  0  0  0  0  0  0  0  0  0
   22.9672  132.5426   -4.3640 H   0  0  0  0  0  0  0  0  0  0  0  0
   25.4740  134.8444   -2.3244 H   0  0  0  0  0  0  0  0  0  0  0  0
   27.0469  133.5346   -3.6310 H   0  0  0  0  0  0  0  0  0  0  0  0
   25.9847  132.2960   -3.6952 H   0  0  0  0  0  0  0  0  0  0  0  0
   25.7901  130.7765   -1.8504 H   0  0  0  0  0  0  0  0  0  0  0  0
   24.1598  130.3053   -0.2169 H   0  0  0  0  0  0  0  0  0  0  0  0
   23.3935  131.5706    0.4747 H   0  0  0  0  0  0  0  0  0  0  0  0
  1  2  1  0  0  0  0
  2  3  1  0  0  0  0
  2  4  2  0  0  0  0
  4  5  1  0  0  0  0
  5  6  1  0  0  0  0
  6  7  1  0  0  0  0
  7  8  1  0  0  0  0
  7  9  2  0  0  0  0
  9 10  1  0  0  0  0
 10 11  1  0  0  0  0
 11 12  1  0  0  0  0
 12 13  1  0  0  0  0
 12 14  2  0  0  0  0
 14 15  1  0  0  0  0
 15 16  1  0  0  0  0
 16 17  1  0  0  0  0
 17 18  1  0  0  0  0
 18 19  2  0  0  0  0
 18 20  1  0  0  0  0
 20 21  1  0  0  0  0
 21 22  2  0  0  0  0
 21 23  1  0  0  0  0
 21 24  1  0  0  0  0
  1 25  1  0  0  0  0
  1 26  1  0  0  0  0
  1 27  1  0  0  0  0
  3 28  1  0  0  0  0
  3 29  1  0  0  0  0
  3 30  1  0  0  0  0
  4 31  1  0  0  0  0
  5 32  1  0  0  0  0
  5 33  1  0  0  0  0
  6 34  1  0  0  0  0
  6 35  1  0  0  0  0
  8 36  1  0  0  0  0
  8 37  1  0  0  0  0
  8 38  1  0  0  0  0
  9 39  1  0  0  0  0
 10 40  1  0  0  0  0
 10 41  1  0  0  0  0
 11 42  1  0  0  0  0
 11 43  1  0  0  0  0
 13 44  1  0  0  0  0
 13 45  1  0  0  0  0
 13 46  1  0  0  0  0
 14 47  1  0  0  0  0
 15 48  1  0  0  0  0
 15 49  1  0  0  0  0
 17 50  1  0  0  0  0
 20 51  1  0  0  0  0
 20 52  1  0  0  0  0
M  CHG  2  23  -1  24  -1
M  END
> <BIOSOLVEIT.HYDE_ESTIMATED_AFFINITY_LOWER_BOUNDARY [nM]>
143101.525632

> <BIOSOLVEIT.HYDE_ESTIMATED_AFFINITY_UPPER_BOUNDARY [nM]>
14217982.654695

> <BIOSOLVEIT.HYDE_LIGAND_EFFICIENCY range: ++, +, 0, -, -->
--

> <BIOSOLVEIT.HYDE_LIGAND_LIPOPHILIC_EFFICIENCY range: ++, +, 0, -, -->
--

> <BIOSOLVEIT.INTER_CLASH range: red, yellow, green>
green

> <BIOSOLVEIT.INTRA_CLASH range: red, yellow, green>
green

> <BIOSOLVEIT.LOGP>
2.3671

> <BIOSOLVEIT.MOLECULAR WEIGHT>
357.384

> <BIOSOLVEIT.MOLECULE_CHECKSUM>
LTE2LjI0MzY7MC42NzY4MTc=

> <BIOSOLVEIT.TORSION_QUALITY range: red, yellow, green, not rotatable>
red

> <BIOSOLVEIT.TPSA>
101.52

$$$$
2IEJ_FII_2
foHydescor03192112223D 1   1.00000     0.00000     0
Hydescorer 1.1.0 fol007
 52 51  0  0  0  0            999 V2000
   16.5457  134.5844   -0.6995 C   0  0  0  0  0  0  0  0  0  0  0  0
   16.2408  136.0615   -0.7800 C   0  0  0  0  0  0  0  0  0  0  0  0
   14.9336  136.5851   -0.2441 C   0  0  0  0  0  0  0  0  0  0  0  0
   17.1152  136.9342   -1.3240 C   0  0  0  0  0  0  0  0  0  0  0  0
   18.4514  136.5169   -1.8897 C   0  0  0  0  0  0  0  0  0  0  0  0
   18.6409  137.0460   -3.3160 C   0  0  0  0  0  0  0  0  0  0  0  0
   19.9385  136.5423   -3.9104 C   0  0  0  0  0  0  0  0  0  0  0  0
   20.3113  136.9509   -5.3166 C   0  0  0  0  0  0  0  0  0  0  0  0
   20.7269  135.7285   -3.1710 C   0  0  0  0  0  0  0  0  0  0  0  0
   22.0412  135.1574   -3.6410 C   0  0  0  0  0  0  0  0  0  0  0  0
   22.8910  134.6975   -2.4510 C   0  0  0  0  0  0  0  0  0  0  0  0
   23.9364  133.6967   -2.8910 C   0  0  0  0  0  0  0  0  0  0  0  0
   23.4989  132.3904   -3.5108 C   0  0  0  0  0  0  0  0  0  0  0  0
   25.2439  133.9873   -2.7118 C   0  0  0  0  0  0  0  0  0  0  0  0
   26.3579  133.0603   -3.1146 C   0  0  0  0  0  0  0  0  0  0  0  0
   26.9323  132.4934   -1.9616 O   0  0  0  0  0  0  0  0  0  0  0  0
   25.9935  131.6675   -1.4277 N   0  0  0  0  0  0  0  0  0  0  0  0
   25.2743  132.0423   -0.2484 C   0  0  0  0  0  0  0  0  0  0  0  0
   25.5087  133.1493    0.3068 O   0  0  0  0  0  0  0  0  0  0  0  0
   24.2836  131.1022    0.3611 C   0  0  0  0  0  0  0  0  0  0  0  0
   24.8621  130.5684    1.9993 P   0  0  0  0  0  0  0  0  0  0  0  0
   25.2982  129.1221    1.9418 O   0  0  0  0  0  0  0  0  0  0  0  0
   26.1666  131.5302    2.4817 O   0  5  0  0  0  0  0  0  0  0  0  0
   23.6036  130.7300    3.1166 O   0  5  0  0  0  0  0  0  0  0  0  0
   17.4463  134.4078   -1.0967 H   0  0  0  0  0  0  0  0  0  0  0  0
   16.5408  134.2947    0.2576 H   0  0  0  0  0  0  0  0  0  0  0  0
   15.8519  134.0727   -1.2062 H   0  0  0  0  0  0  0  0  0  0  0  0
   14.8925  137.5756   -0.3750 H   0  0  0  0  0  0  0  0  0  0  0  0
   14.1759  136.1525   -0.7327 H   0  0  0  0  0  0  0  0  0  0  0  0
   14.8648  136.3745    0.7310 H   0  0  0  0  0  0  0  0  0  0  0  0
   16.8665  137.9023   -1.3536 H   0  0  0  0  0  0  0  0  0  0  0  0
   18.5021  135.5183   -1.9031 H   0  0  0  0  0  0  0  0  0  0  0  0
   19.1793  136.8799   -1.3080 H   0  0  0  0  0  0  0  0  0  0  0  0
   18.6566  138.0457   -3.2952 H   0  0  0  0  0  0  0  0  0  0  0  0
   17.8785  136.7364   -3.8842 H   0  0  0  0  0  0  0  0  0  0  0  0
   21.1892  136.5397   -5.5615 H   0  0  0  0  0  0  0  0  0  0  0  0
   19.6068  136.6365   -5.9529 H   0  0  0  0  0  0  0  0  0  0  0  0
   20.3844  137.9470   -5.3660 H   0  0  0  0  0  0  0  0  0  0  0  0
   20.4172  135.4895   -2.2507 H   0  0  0  0  0  0  0  0  0  0  0  0
   22.5407  135.8591   -4.1490 H   0  0  0  0  0  0  0  0  0  0  0  0
   21.8639  134.3757   -4.2390 H   0  0  0  0  0  0  0  0  0  0  0  0
   22.2964  134.2719   -1.7689 H   0  0  0  0  0  0  0  0  0  0  0  0
   23.3465  135.4911   -2.0476 H   0  0  0  0  0  0  0  0  0  0  0  0
   24.3045  131.8458   -3.7442 H   0  0  0  0  0  0  0  0  0  0  0  0
   22.9325  131.8856   -2.8594 H   0  0  0  0  0  0  0  0  0  0  0  0
   22.9700  132.5752   -4.3392 H   0  0  0  0  0  0  0  0  0  0  0  0
   25.4828  134.8622   -2.2905 H   0  0  0  0  0  0  0  0  0  0  0  0
   27.0540  133.5733   -3.6167 H   0  0  0  0  0  0  0  0  0  0  0  0
   25.9936  132.3341   -3.6976 H   0  0  0  0  0  0  0  0  0  0  0  0
   25.8032  130.7881   -1.8640 H   0  0  0  0  0  0  0  0  0  0  0  0
   24.1786  130.3025   -0.2300 H   0  0  0  0  0  0  0  0  0  0  0  0
   23.4023  131.5650    0.4555 H   0  0  0  0  0  0  0  0  0  0  0  0
  1  2  1  0  0  0  0
  2  3  1  0  0  0  0
  2  4  2  0  0  0  0
  4  5  1  0  0  0  0
  5  6  1  0  0  0  0
  6  7  1  0  0  0  0
  7  8  1  0  0  0  0
  7  9  2  0  0  0  0
  9 10  1  0  0  0  0
 10 11  1  0  0  0  0
 11 12  1  0  0  0  0
 12 13  1  0  0  0  0
 12 14  2  0  0  0  0
 14 15  1  0  0  0  0
 15 16  1  0  0  0  0
 16 17  1  0  0  0  0
 17 18  1  0  0  0  0
 18 19  2  0  0  0  0
 18 20  1  0  0  0  0
 20 21  1  0  0  0  0
 21 22  2  0  0  0  0
 21 23  1  0  0  0  0
 21 24  1  0  0  0  0
  1 25  1  0  0  0  0
  1 26  1  0  0  0  0
  1 27  1  0  0  0  0
  3 28  1  0  0  0  0
  3 29  1  0  0  0  0
  3 30  1  0  0  0  0
  4 31  1  0  0  0  0
  5 32  1  0  0  0  0
  5 33  1  0  0  0  0
  6 34  1  0  0  0  0
  6 35  1  0  0  0  0
  8 36  1  0  0  0  0
  8 37  1  0  0  0  0
  8 38  1  0  0  0  0
  9 39  1  0  0  0  0
 10 40  1  0  0  0  0
 10 41  1  0  0  0  0
 11 42  1  0  0  0  0
 11 43  1  0  0  0  0
 13 44  1  0  0  0  0
 13 45  1  0  0  0  0
 13 46  1  0  0  0  0
 14 47  1  0  0  0  0
 15 48  1  0  0  0  0
 15 49  1  0  0  0  0
 17 50  1  0  0  0  0
 20 51  1  0  0  0  0
 20 52  1  0  0  0  0
M  CHG  2  23  -1  24  -1
M  END
> <BIOSOLVEIT.HYDE_ESTIMATED_AFFINITY_LOWER_BOUNDARY [nM]>
206106.585424

> <BIOSOLVEIT.HYDE_ESTIMATED_AFFINITY_UPPER_BOUNDARY [nM]>
20477907.860494

> <BIOSOLVEIT.HYDE_LIGAND_EFFICIENCY range: ++, +, 0, -, -->
--

> <BIOSOLVEIT.HYDE_LIGAND_LIPOPHILIC_EFFICIENCY range: ++, +, 0, -, -->
--

> <BIOSOLVEIT.INTER_CLASH range: red, yellow, green>
green

> <BIOSOLVEIT.INTRA_CLASH range: red, yellow, green>
green

> <BIOSOLVEIT.LOGP>
2.3671

> <BIOSOLVEIT.MOLECULAR WEIGHT>
357.384

> <BIOSOLVEIT.MOLECULE_CHECKSUM>
LTE1LjMzOTI7MC42MzkxMzM=

> <BIOSOLVEIT.TORSION_QUALITY range: red, yellow, green, not rotatable>
green

> <BIOSOLVEIT.TPSA>
101.52

$$$$
2IEJ_FII_3
foHydescor03192112223D 1   1.00000     0.00000     0
Hydescorer 1.1.0 fol007
 52 51  0  0  0  0            999 V2000
   15.0651  133.7119   -2.6799 C   0  0  0  0  0  0  0  0  0  0  0  0
   15.0621  134.4299   -4.0088 C   0  0  0  0  0  0  0  0  0  0  0  0
   13.7540  134.7243   -4.6963 C   0  0  0  0  0  0  0  0  0  0  0  0
   16.2097  134.8188   -4.6036 C   0  0  0  0  0  0  0  0  0  0  0  0
   17.5729  134.5743   -4.0026 C   0  0  0  0  0  0  0  0  0  0  0  0
   18.2339  135.8884   -3.5707 C   0  0  0  0  0  0  0  0  0  0  0  0
   19.6764  135.9419   -4.0262 C   0  0  0  0  0  0  0  0  0  0  0  0
   20.0320  136.7545   -5.2496 C   0  0  0  0  0  0  0  0  0  0  0  0
   20.6098  135.2506   -3.3324 C   0  0  0  0  0  0  0  0  0  0  0  0
   22.0776  135.2181   -3.6774 C   0  0  0  0  0  0  0  0  0  0  0  0
   22.9074  134.7424   -2.4795 C   0  0  0  0  0  0  0  0  0  0  0  0
   23.9322  133.7157   -2.9082 C   0  0  0  0  0  0  0  0  0  0  0  0
   23.4682  132.4107   -3.5110 C   0  0  0  0  0  0  0  0  0  0  0  0
   25.2455  133.9829   -2.7344 C   0  0  0  0  0  0  0  0  0  0  0  0
   26.3404  133.0291   -3.1269 C   0  0  0  0  0  0  0  0  0  0  0  0
   26.9141  132.4755   -1.9673 O   0  0  0  0  0  0  0  0  0  0  0  0
   25.9755  131.6550   -1.4250 N   0  0  0  0  0  0  0  0  0  0  0  0
   25.2607  132.0388   -0.2459 C   0  0  0  0  0  0  0  0  0  0  0  0
   25.4989  133.1488    0.3012 O   0  0  0  0  0  0  0  0  0  0  0  0
   24.2702  131.1045    0.3727 C   0  0  0  0  0  0  0  0  0  0  0  0
   24.8603  130.5679    2.0059 P   0  0  0  0  0  0  0  0  0  0  0  0
   25.2981  129.1223    1.9421 O   0  0  0  0  0  0  0  0  0  0  0  0
   26.1667  131.5303    2.4817 O   0  5  0  0  0  0  0  0  0  0  0  0
   23.6090  130.7252    3.1319 O   0  5  0  0  0  0  0  0  0  0  0  0
   16.0073  133.5973   -2.3650 H   0  0  0  0  0  0  0  0  0  0  0  0
   14.5527  134.2488   -2.0098 H   0  0  0  0  0  0  0  0  0  0  0  0
   14.6373  132.8142   -2.7852 H   0  0  0  0  0  0  0  0  0  0  0  0
   13.9301  135.2004   -5.5580 H   0  0  0  0  0  0  0  0  0  0  0  0
   13.2743  133.8666   -4.8813 H   0  0  0  0  0  0  0  0  0  0  0  0
   13.1897  135.3013   -4.1060 H   0  0  0  0  0  0  0  0  0  0  0  0
   16.1543  135.2910   -5.4834 H   0  0  0  0  0  0  0  0  0  0  0  0
   18.1531  134.1257   -4.6824 H   0  0  0  0  0  0  0  0  0  0  0  0
   17.4753  133.9806   -3.2039 H   0  0  0  0  0  0  0  0  0  0  0  0
   18.2024  135.9586   -2.5737 H   0  0  0  0  0  0  0  0  0  0  0  0
   17.7342  136.6546   -3.9747 H   0  0  0  0  0  0  0  0  0  0  0  0
   21.0155  136.6893   -5.4188 H   0  0  0  0  0  0  0  0  0  0  0  0
   19.5335  136.4009   -6.0410 H   0  0  0  0  0  0  0  0  0  0  0  0
   19.7824  137.7111   -5.0985 H   0  0  0  0  0  0  0  0  0  0  0  0
   20.3060  134.7257   -2.5374 H   0  0  0  0  0  0  0  0  0  0  0  0
   22.3738  136.1373   -3.9372 H   0  0  0  0  0  0  0  0  0  0  0  0
   22.2205  134.5927   -4.4444 H   0  0  0  0  0  0  0  0  0  0  0  0
   22.2979  134.3332   -1.8005 H   0  0  0  0  0  0  0  0  0  0  0  0
   23.3784  135.5264   -2.0751 H   0  0  0  0  0  0  0  0  0  0  0  0
   24.2626  131.8474   -3.7386 H   0  0  0  0  0  0  0  0  0  0  0  0
   22.8930  131.9252   -2.8526 H   0  0  0  0  0  0  0  0  0  0  0  0
   22.9418  132.5955   -4.3410 H   0  0  0  0  0  0  0  0  0  0  0  0
   25.5022  134.8582   -2.3245 H   0  0  0  0  0  0  0  0  0  0  0  0
   27.0412  133.5202   -3.6444 H   0  0  0  0  0  0  0  0  0  0  0  0
   25.9593  132.2979   -3.6927 H   0  0  0  0  0  0  0  0  0  0  0  0
   25.7823  130.7730   -1.8550 H   0  0  0  0  0  0  0  0  0  0  0  0
   24.1553  130.3053   -0.2172 H   0  0  0  0  0  0  0  0  0  0  0  0
   23.3923  131.5724    0.4749 H   0  0  0  0  0  0  0  0  0  0  0  0
  1  2  1  0  0  0  0
  2  3  1  0  0  0  0
  2  4  2  0  0  0  0
  4  5  1  0  0  0  0
  5  6  1  0  0  0  0
  6  7  1  0  0  0  0
  7  8  1  0  0  0  0
  7  9  2  0  0  0  0
  9 10  1  0  0  0  0
 10 11  1  0  0  0  0
 11 12  1  0  0  0  0
 12 13  1  0  0  0  0
 12 14  2  0  0  0  0
 14 15  1  0  0  0  0
 15 16  1  0  0  0  0
 16 17  1  0  0  0  0
 17 18  1  0  0  0  0
 18 19  2  0  0  0  0
 18 20  1  0  0  0  0
 20 21  1  0  0  0  0
 21 22  2  0  0  0  0
 21 23  1  0  0  0  0
 21 24  1  0  0  0  0
  1 25  1  0  0  0  0
  1 26  1  0  0  0  0
  1 27  1  0  0  0  0
  3 28  1  0  0  0  0
  3 29  1  0  0  0  0
  3 30  1  0  0  0  0
  4 31  1  0  0  0  0
  5 32  1  0  0  0  0
  5 33  1  0  0  0  0
  6 34  1  0  0  0  0
  6 35  1  0  0  0  0
  8 36  1  0  0  0  0
  8 37  1  0  0  0  0
  8 38  1  0  0  0  0
  9 39  1  0  0  0  0
 10 40  1  0  0  0  0
 10 41  1  0  0  0  0
 11 42  1  0  0  0  0
 11 43  1  0  0  0  0
 13 44  1  0  0  0  0
 13 45  1  0  0  0  0
 13 46  1  0  0  0  0
 14 47  1  0  0  0  0
 15 48  1  0  0  0  0
 15 49  1  0  0  0  0
 17 50  1  0  0  0  0
 20 51  1  0  0  0  0
 20 52  1  0  0  0  0
M  CHG  2  23  -1  24  -1
M  END
> <BIOSOLVEIT.HYDE_ESTIMATED_AFFINITY_LOWER_BOUNDARY [nM]>
70263.061843

> <BIOSOLVEIT.HYDE_ESTIMATED_AFFINITY_UPPER_BOUNDARY [nM]>
6981050.622197

> <BIOSOLVEIT.HYDE_LIGAND_EFFICIENCY range: ++, +, 0, -, -->
--

> <BIOSOLVEIT.HYDE_LIGAND_LIPOPHILIC_EFFICIENCY range: ++, +, 0, -, -->
--

> <BIOSOLVEIT.INTER_CLASH range: red, yellow, green>
green

> <BIOSOLVEIT.INTRA_CLASH range: red, yellow, green>
green

> <BIOSOLVEIT.LOGP>
2.3671

> <BIOSOLVEIT.MOLECULAR WEIGHT>
357.384

> <BIOSOLVEIT.MOLECULE_CHECKSUM>
LTE4LjAwNjk7MC43NTAyODg=

> <BIOSOLVEIT.TORSION_QUALITY range: red, yellow, green, not rotatable>
red

> <BIOSOLVEIT.TPSA>
101.52

$$$$
1LD8_FPP_1
foHydescor03192112223D 1   1.00000     0.00000     0
Hydescorer 1.1.0 fol007
 49 48  0  0  0  0            999 V2000
   14.0045  130.5302   -3.7845 C   0  0  0  0  0  0  0  0  0  0  0  0
   15.1342  130.4891   -4.7870 C   0  0  0  0  0  0  0  0  0  0  0  0
   15.4756  131.7291   -5.5724 C   0  0  0  0  0  0  0  0  0  0  0  0
   15.8663  129.3724   -4.9955 C   0  0  0  0  0  0  0  0  0  0  0  0
   15.6522  128.0656   -4.2734 C   0  0  0  0  0  0  0  0  0  0  0  0
   16.9800  127.3224   -4.0899 C   0  0  0  0  0  0  0  0  0  0  0  0
   17.9715  128.1735   -3.3275 C   0  0  0  0  0  0  0  0  0  0  0  0
   17.6073  128.6793   -1.9517 C   0  0  0  0  0  0  0  0  0  0  0  0
   19.1653  128.4628   -3.8905 C   0  0  0  0  0  0  0  0  0  0  0  0
   20.2164  129.3033   -3.2068 C   0  0  0  0  0  0  0  0  0  0  0  0
   21.5337  128.5334   -3.0591 C   0  0  0  0  0  0  0  0  0  0  0  0
   22.7130  129.4815   -3.0367 C   0  0  0  0  0  0  0  0  0  0  0  0
   23.3683  129.8760   -4.3398 C   0  0  0  0  0  0  0  0  0  0  0  0
   23.1564  129.9537   -1.8497 C   0  0  0  0  0  0  0  0  0  0  0  0
   24.3174  130.8989   -1.7054 C   0  0  0  0  0  0  0  0  0  0  0  0
   23.8829  132.0741   -1.0642 O   0  0  0  0  0  0  0  0  0  0  0  0
   23.8191  131.7750    0.6123 P   0  0  0  0  0  0  0  0  0  0  0  0
   22.4021  132.0115    1.0837 O   0  0  0  0  0  0  0  0  0  0  0  0
   24.8558  132.8544    1.4059 O   0  5  0  0  0  0  0  0  0  0  0  0
   24.2584  130.1566    0.9129 O   0  0  0  0  0  0  0  0  0  0  0  0
   24.9951  130.0968    2.4455 P   0  0  0  0  0  0  0  0  0  0  0  0
   25.5249  128.7000    2.6733 O   0  0  0  0  0  0  0  0  0  0  0  0
   23.8842  130.4626    3.6696 O   0  5  0  0  0  0  0  0  0  0  0  0
   26.2889  131.1851    2.5103 O   0  5  0  0  0  0  0  0  0  0  0  0
   13.9091  129.6332   -3.3529 H   0  0  0  0  0  0  0  0  0  0  0  0
   14.2040  131.2170   -3.0854 H   0  0  0  0  0  0  0  0  0  0  0  0
   13.1528  130.7677   -4.2516 H   0  0  0  0  0  0  0  0  0  0  0  0
   16.2403  131.5346   -6.1867 H   0  0  0  0  0  0  0  0  0  0  0  0
   14.6809  132.0131   -6.1089 H   0  0  0  0  0  0  0  0  0  0  0  0
   15.7321  132.4624   -4.9428 H   0  0  0  0  0  0  0  0  0  0  0  0
   16.5994  129.4154   -5.6743 H   0  0  0  0  0  0  0  0  0  0  0  0
   15.0277  127.4948   -4.8064 H   0  0  0  0  0  0  0  0  0  0  0  0
   15.2521  128.2488   -3.3754 H   0  0  0  0  0  0  0  0  0  0  0  0
   17.3596  127.1027   -4.9886 H   0  0  0  0  0  0  0  0  0  0  0  0
   16.8150  126.4770   -3.5820 H   0  0  0  0  0  0  0  0  0  0  0  0
   18.3631  129.2220   -1.5852 H   0  0  0  0  0  0  0  0  0  0  0  0
   16.7871  129.2482   -2.0120 H   0  0  0  0  0  0  0  0  0  0  0  0
   17.4306  127.9027   -1.3470 H   0  0  0  0  0  0  0  0  0  0  0  0
   19.3617  128.1032   -4.8028 H   0  0  0  0  0  0  0  0  0  0  0  0
   19.8867  129.5625   -2.2990 H   0  0  0  0  0  0  0  0  0  0  0  0
   20.3793  130.1269   -3.7501 H   0  0  0  0  0  0  0  0  0  0  0  0
   21.6337  127.9045   -3.8302 H   0  0  0  0  0  0  0  0  0  0  0  0
   21.5151  128.0135   -2.2052 H   0  0  0  0  0  0  0  0  0  0  0  0
   24.1260  130.5021   -4.1558 H   0  0  0  0  0  0  0  0  0  0  0  0
   23.7156  129.0584   -4.7992 H   0  0  0  0  0  0  0  0  0  0  0  0
   22.6970  130.3285   -4.9269 H   0  0  0  0  0  0  0  0  0  0  0  0
   22.6848  129.6571   -1.0193 H   0  0  0  0  0  0  0  0  0  0  0  0
   24.6781  131.1257   -2.6101 H   0  0  0  0  0  0  0  0  0  0  0  0
   25.0348  130.4661   -1.1594 H   0  0  0  0  0  0  0  0  0  0  0  0
  1  2  1  0  0  0  0
  2  3  1  0  0  0  0
  2  4  2  0  0  0  0
  4  5  1  0  0  0  0
  5  6  1  0  0  0  0
  6  7  1  0  0  0  0
  7  8  1  0  0  0  0
  7  9  2  0  0  0  0
  9 10  1  0  0  0  0
 10 11  1  0  0  0  0
 11 12  1  0  0  0  0
 12 13  1  0  0  0  0
 12 14  2  0  0  0  0
 14 15  1  0  0  0  0
 15 16  1  0  0  0  0
 16 17  1  0  0  0  0
 17 18  2  0  0  0  0
 17 19  1  0  0  0  0
 17 20  1  0  0  0  0
 20 21  1  0  0  0  0
 21 22  2  0  0  0  0
 21 23  1  0  0  0  0
 21 24  1  0  0  0  0
  1 25  1  0  0  0  0
  1 26  1  0  0  0  0
  1 27  1  0  0  0  0
  3 28  1  0  0  0  0
  3 29  1  0  0  0  0
  3 30  1  0  0  0  0
  4 31  1  0  0  0  0
  5 32  1  0  0  0  0
  5 33  1  0  0  0  0
  6 34  1  0  0  0  0
  6 35  1  0  0  0  0
  8 36  1  0  0  0  0
  8 37  1  0  0  0  0
  8 38  1  0  0  0  0
  9 39  1  0  0  0  0
 10 40  1  0  0  0  0
 10 41  1  0  0  0  0
 11 42  1  0  0  0  0
 11 43  1  0  0  0  0
 13 44  1  0  0  0  0
 13 45  1  0  0  0  0
 13 46  1  0  0  0  0
 14 47  1  0  0  0  0
 15 48  1  0  0  0  0
 15 49  1  0  0  0  0
M  CHG  3  19  -1  23  -1  24  -1
M  END
> <BIOSOLVEIT.HYDE_ESTIMATED_AFFINITY_LOWER_BOUNDARY [nM]>
2472.510805

> <BIOSOLVEIT.HYDE_ESTIMATED_AFFINITY_UPPER_BOUNDARY [nM]>
245658.567106

> <BIOSOLVEIT.HYDE_LIGAND_EFFICIENCY range: ++, +, 0, -, -->
-

> <BIOSOLVEIT.HYDE_LIGAND_LIPOPHILIC_EFFICIENCY range: ++, +, 0, -, -->
--

> <BIOSOLVEIT.INTER_CLASH range: red, yellow, green>
green

> <BIOSOLVEIT.INTRA_CLASH range: red, yellow, green>
red

> <BIOSOLVEIT.LOGP>
2.7359

> <BIOSOLVEIT.MOLECULAR WEIGHT>
379.304

> <BIOSOLVEIT.MOLECULE_CHECKSUM>
LTI2LjMwNDsxLjA5Ng==

> <BIOSOLVEIT.TORSION_QUALITY range: red, yellow, green, not rotatable>
green

> <BIOSOLVEIT.TPSA>
121.78

$$$$
1LD8_FPP_2
foHydescor03192112223D 1   1.00000     0.00000     0
Hydescorer 1.1.0 fol007
 49 48  0  0  0  0            999 V2000
   14.6516  129.9740   -5.9186 C   0  0  0  0  0  0  0  0  0  0  0  0
   15.7701  130.4676   -5.0309 C   0  0  0  0  0  0  0  0  0  0  0  0
   16.3908  131.8145   -5.2983 C   0  0  0  0  0  0  0  0  0  0  0  0
   16.2279  129.7431   -3.9861 C   0  0  0  0  0  0  0  0  0  0  0  0
   15.6938  128.3899   -3.5878 C   0  0  0  0  0  0  0  0  0  0  0  0
   16.7953  127.3269   -3.6647 C   0  0  0  0  0  0  0  0  0  0  0  0
   18.0705  127.8269   -3.0225 C   0  0  0  0  0  0  0  0  0  0  0  0
   18.0005  128.5230   -1.6838 C   0  0  0  0  0  0  0  0  0  0  0  0
   19.2485  127.6389   -3.6572 C   0  0  0  0  0  0  0  0  0  0  0  0
   20.5703  128.1026   -3.0948 C   0  0  0  0  0  0  0  0  0  0  0  0
   20.9521  129.4836   -3.6396 C   0  0  0  0  0  0  0  0  0  0  0  0
   22.2435  129.9705   -3.0188 C   0  0  0  0  0  0  0  0  0  0  0  0
   23.4649  129.0819   -3.0627 C   0  0  0  0  0  0  0  0  0  0  0  0
   22.2758  131.1902   -2.4358 C   0  0  0  0  0  0  0  0  0  0  0  0
   23.5000  131.7768   -1.7885 C   0  0  0  0  0  0  0  0  0  0  0  0
   23.2338  132.0231   -0.4286 O   0  0  0  0  0  0  0  0  0  0  0  0
   24.5069  131.3640    0.4925 P   0  0  0  0  0  0  0  0  0  0  0  0
   25.0547  132.4495    1.3914 O   0  0  0  0  0  0  0  0  0  0  0  0
   25.7314  130.8389   -0.5536 O   0  5  0  0  0  0  0  0  0  0  0  0
   23.9097  130.0825    1.4431 O   0  0  0  0  0  0  0  0  0  0  0  0
   24.9067  129.9482    2.8154 P   0  0  0  0  0  0  0  0  0  0  0  0
   24.6186  128.6298    3.4953 O   0  0  0  0  0  0  0  0  0  0  0  0
   24.6050  131.2021    3.9121 O   0  5  0  0  0  0  0  0  0  0  0  0
   26.5344  129.9770    2.3550 O   0  5  0  0  0  0  0  0  0  0  0  0
   14.3536  129.0711   -5.6086 H   0  0  0  0  0  0  0  0  0  0  0  0
   13.8832  130.6124   -5.8729 H   0  0  0  0  0  0  0  0  0  0  0  0
   14.9775  129.9116   -6.8619 H   0  0  0  0  0  0  0  0  0  0  0  0
   17.1104  131.9892   -4.6262 H   0  0  0  0  0  0  0  0  0  0  0  0
   16.7842  131.8236   -6.2177 H   0  0  0  0  0  0  0  0  0  0  0  0
   15.6899  132.5243   -5.2285 H   0  0  0  0  0  0  0  0  0  0  0  0
   16.9708  130.1302   -3.4402 H   0  0  0  0  0  0  0  0  0  0  0  0
   14.9495  128.1362   -4.2056 H   0  0  0  0  0  0  0  0  0  0  0  0
   15.3479  128.4366   -2.6507 H   0  0  0  0  0  0  0  0  0  0  0  0
   16.9748  127.1097   -4.6242 H   0  0  0  0  0  0  0  0  0  0  0  0
   16.4894  126.5028   -3.1879 H   0  0  0  0  0  0  0  0  0  0  0  0
   18.9209  128.7900   -1.3984 H   0  0  0  0  0  0  0  0  0  0  0  0
   17.4260  129.3377   -1.7614 H   0  0  0  0  0  0  0  0  0  0  0  0
   17.6082  127.9018   -1.0053 H   0  0  0  0  0  0  0  0  0  0  0  0
   19.2444  127.1707   -4.5408 H   0  0  0  0  0  0  0  0  0  0  0  0
   21.2804  127.4450   -3.3467 H   0  0  0  0  0  0  0  0  0  0  0  0
   20.5010  128.1529   -2.0985 H   0  0  0  0  0  0  0  0  0  0  0  0
   20.2216  130.1327   -3.4273 H   0  0  0  0  0  0  0  0  0  0  0  0
   21.0675  129.4241   -4.6311 H   0  0  0  0  0  0  0  0  0  0  0  0
   24.2297  129.5440   -2.6137 H   0  0  0  0  0  0  0  0  0  0  0  0
   23.2696  128.2232   -2.5887 H   0  0  0  0  0  0  0  0  0  0  0  0
   23.7036  128.8903   -4.0147 H   0  0  0  0  0  0  0  0  0  0  0  0
   21.4366  131.7340   -2.4352 H   0  0  0  0  0  0  0  0  0  0  0  0
   23.7396  132.6348   -2.2428 H   0  0  0  0  0  0  0  0  0  0  0  0
   24.2612  131.1334   -1.8686 H   0  0  0  0  0  0  0  0  0  0  0  0
  1  2  1  0  0  0  0
  2  3  1  0  0  0  0
  2  4  2  0  0  0  0
  4  5  1  0  0  0  0
  5  6  1  0  0  0  0
  6  7  1  0  0  0  0
  7  8  1  0  0  0  0
  7  9  2  0  0  0  0
  9 10  1  0  0  0  0
 10 11  1  0  0  0  0
 11 12  1  0  0  0  0
 12 13  1  0  0  0  0
 12 14  2  0  0  0  0
 14 15  1  0  0  0  0
 15 16  1  0  0  0  0
 16 17  1  0  0  0  0
 17 18  2  0  0  0  0
 17 19  1  0  0  0  0
 17 20  1  0  0  0  0
 20 21  1  0  0  0  0
 21 22  2  0  0  0  0
 21 23  1  0  0  0  0
 21 24  1  0  0  0  0
  1 25  1  0  0  0  0
  1 26  1  0  0  0  0
  1 27  1  0  0  0  0
  3 28  1  0  0  0  0
  3 29  1  0  0  0  0
  3 30  1  0  0  0  0
  4 31  1  0  0  0  0
  5 32  1  0  0  0  0
  5 33  1  0  0  0  0
  6 34  1  0  0  0  0
  6 35  1  0  0  0  0
  8 36  1  0  0  0  0
  8 37  1  0  0  0  0
  8 38  1  0  0  0  0
  9 39  1  0  0  0  0
 10 40  1  0  0  0  0
 10 41  1  0  0  0  0
 11 42  1  0  0  0  0
 11 43  1  0  0  0  0
 13 44  1  0  0  0  0
 13 45  1  0  0  0  0
 13 46  1  0  0  0  0
 14 47  1  0  0  0  0
 15 48  1  0  0  0  0
 15 49  1  0  0  0  0
M  CHG  3  19  -1  23  -1  24  -1
M  END
> <BIOSOLVEIT.HYDE_ESTIMATED_AFFINITY_LOWER_BOUNDARY [nM]>
6610.791760

> <BIOSOLVEIT.HYDE_ESTIMATED_AFFINITY_UPPER_BOUNDARY [nM]>
656821.247438

> <BIOSOLVEIT.HYDE_LIGAND_EFFICIENCY range: ++, +, 0, -, -->
-

> <BIOSOLVEIT.HYDE_LIGAND_LIPOPHILIC_EFFICIENCY range: ++, +, 0, -, -->
--

> <BIOSOLVEIT.INTER_CLASH range: red, yellow, green>
green

> <BIOSOLVEIT.INTRA_CLASH range: red, yellow, green>
green

> <BIOSOLVEIT.LOGP>
2.7359

> <BIOSOLVEIT.MOLECULAR WEIGHT>
379.304

> <BIOSOLVEIT.MOLECULE_CHECKSUM>
LTIzLjg2NjswLjk5NDQxOA==

> <BIOSOLVEIT.TORSION_QUALITY range: red, yellow, green, not rotatable>
yellow

> <BIOSOLVEIT.TPSA>
121.78

$$$$
1LD8_FPP_3
foHydescor03192112223D 1   1.00000     0.00000     0
Hydescorer 1.1.0 fol007
 49 48  0  0  0  0            999 V2000
   15.8260  131.3783   -2.9145 C   0  0  0  0  0  0  0  0  0  0  0  0
   16.6068  130.9593   -4.1383 C   0  0  0  0  0  0  0  0  0  0  0  0
   17.3810  131.9928   -4.9150 C   0  0  0  0  0  0  0  0  0  0  0  0
   16.6478  129.6749   -4.5564 C   0  0  0  0  0  0  0  0  0  0  0  0
   15.9391  128.5325   -3.8723 C   0  0  0  0  0  0  0  0  0  0  0  0
   16.8992  127.3619   -3.6345 C   0  0  0  0  0  0  0  0  0  0  0  0
   18.1679  127.8357   -2.9604 C   0  0  0  0  0  0  0  0  0  0  0  0
   18.0814  128.5063   -1.6097 C   0  0  0  0  0  0  0  0  0  0  0  0
   19.3550  127.6474   -3.5779 C   0  0  0  0  0  0  0  0  0  0  0  0
   20.6713  128.0860   -2.9834 C   0  0  0  0  0  0  0  0  0  0  0  0
   21.2076  129.3392   -3.6847 C   0  0  0  0  0  0  0  0  0  0  0  0
   22.4661  129.8387   -3.0090 C   0  0  0  0  0  0  0  0  0  0  0  0
   23.6549  128.9140   -2.8859 C   0  0  0  0  0  0  0  0  0  0  0  0
   22.4990  131.1020   -2.5280 C   0  0  0  0  0  0  0  0  0  0  0  0
   23.6923  131.7053   -1.8393 C   0  0  0  0  0  0  0  0  0  0  0  0
   23.3376  132.0662   -0.5260 O   0  0  0  0  0  0  0  0  0  0  0  0
   24.5312  131.4677    0.5327 P   0  0  0  0  0  0  0  0  0  0  0  0
   24.9756  132.5968    1.4348 O   0  0  0  0  0  0  0  0  0  0  0  0
   25.8556  130.9288   -0.3757 O   0  5  0  0  0  0  0  0  0  0  0  0
   23.8704  130.2108    1.4740 O   0  0  0  0  0  0  0  0  0  0  0  0
   24.9030  129.9625    2.8035 P   0  0  0  0  0  0  0  0  0  0  0  0
   24.6233  128.5958    3.3844 O   0  0  0  0  0  0  0  0  0  0  0  0
   24.6407  131.1270    4.0039 O   0  5  0  0  0  0  0  0  0  0  0  0
   26.5179  130.0189    2.3022 O   0  5  0  0  0  0  0  0  0  0  0  0
   15.3729  130.5797   -2.5185 H   0  0  0  0  0  0  0  0  0  0  0  0
   16.4494  131.7759   -2.2413 H   0  0  0  0  0  0  0  0  0  0  0  0
   15.1388  132.0570   -3.1738 H   0  0  0  0  0  0  0  0  0  0  0  0
   17.8379  131.5547   -5.6892 H   0  0  0  0  0  0  0  0  0  0  0  0
   16.7541  132.6953   -5.2519 H   0  0  0  0  0  0  0  0  0  0  0  0
   18.0649  132.4142   -4.3193 H   0  0  0  0  0  0  0  0  0  0  0  0
   17.1841  129.4678   -5.3747 H   0  0  0  0  0  0  0  0  0  0  0  0
   15.1821  128.2241   -4.4483 H   0  0  0  0  0  0  0  0  0  0  0  0
   15.5820  128.8476   -2.9929 H   0  0  0  0  0  0  0  0  0  0  0  0
   17.1311  126.9445   -4.5131 H   0  0  0  0  0  0  0  0  0  0  0  0
   16.4516  126.6841   -3.0512 H   0  0  0  0  0  0  0  0  0  0  0  0
   18.9993  128.7580   -1.3031 H   0  0  0  0  0  0  0  0  0  0  0  0
   17.5168  129.3286   -1.6814 H   0  0  0  0  0  0  0  0  0  0  0  0
   17.6708  127.8763   -0.9505 H   0  0  0  0  0  0  0  0  0  0  0  0
   19.3618  127.1964   -4.4705 H   0  0  0  0  0  0  0  0  0  0  0  0
   21.3368  127.3464   -3.0838 H   0  0  0  0  0  0  0  0  0  0  0  0
   20.5398  128.2867   -2.0127 H   0  0  0  0  0  0  0  0  0  0  0  0
   20.5114  130.0563   -3.6514 H   0  0  0  0  0  0  0  0  0  0  0  0
   21.4133  129.1183   -4.6381 H   0  0  0  0  0  0  0  0  0  0  0  0
   24.4004  129.3898   -2.4193 H   0  0  0  0  0  0  0  0  0  0  0  0
   23.3946  128.1048   -2.3591 H   0  0  0  0  0  0  0  0  0  0  0  0
   23.9563  128.6354   -3.7977 H   0  0  0  0  0  0  0  0  0  0  0  0
   21.6821  131.6684   -2.6365 H   0  0  0  0  0  0  0  0  0  0  0  0
   23.9915  132.5178   -2.3398 H   0  0  0  0  0  0  0  0  0  0  0  0
   24.4360  131.0373   -1.8130 H   0  0  0  0  0  0  0  0  0  0  0  0
  1  2  1  0  0  0  0
  2  3  1  0  0  0  0
  2  4  2  0  0  0  0
  4  5  1  0  0  0  0
  5  6  1  0  0  0  0
  6  7  1  0  0  0  0
  7  8  1  0  0  0  0
  7  9  2  0  0  0  0
  9 10  1  0  0  0  0
 10 11  1  0  0  0  0
 11 12  1  0  0  0  0
 12 13  1  0  0  0  0
 12 14  2  0  0  0  0
 14 15  1  0  0  0  0
 15 16  1  0  0  0  0
 16 17  1  0  0  0  0
 17 18  2  0  0  0  0
 17 19  1  0  0  0  0
 17 20  1  0  0  0  0
 20 21  1  0  0  0  0
 21 22  2  0  0  0  0
 21 23  1  0  0  0  0
 21 24  1  0  0  0  0
  1 25  1  0  0  0  0
  1 26  1  0  0  0  0
  1 27  1  0  0  0  0
  3 28  1  0  0  0  0
  3 29  1  0  0  0  0
  3 30  1  0  0  0  0
  4 31  1  0  0  0  0
  5 32  1  0  0  0  0
  5 33  1  0  0  0  0
  6 34  1  0  0  0  0
  6 35  1  0  0  0  0
  8 36  1  0  0  0  0
  8 37  1  0  0  0  0
  8 38  1  0  0  0  0
  9 39  1  0  0  0  0
 10 40  1  0  0  0  0
 10 41  1  0  0  0  0
 11 42  1  0  0  0  0
 11 43  1  0  0  0  0
 13 44  1  0  0  0  0
 13 45  1  0  0  0  0
 13 46  1  0  0  0  0
 14 47  1  0  0  0  0
 15 48  1  0  0  0  0
 15 49  1  0  0  0  0
M  CHG  3  19  -1  23  -1  24  -1
M  END
> <BIOSOLVEIT.HYDE_ESTIMATED_AFFINITY_LOWER_BOUNDARY [nM]>
929.537435

> <BIOSOLVEIT.HYDE_ESTIMATED_AFFINITY_UPPER_BOUNDARY [nM]>
92355.040044

> <BIOSOLVEIT.HYDE_LIGAND_EFFICIENCY range: ++, +, 0, -, -->
-

> <BIOSOLVEIT.HYDE_LIGAND_LIPOPHILIC_EFFICIENCY range: ++, +, 0, -, -->
-

> <BIOSOLVEIT.INTER_CLASH range: red, yellow, green>
green

> <BIOSOLVEIT.INTRA_CLASH range: red, yellow, green>
green

> <BIOSOLVEIT.LOGP>
2.7359

> <BIOSOLVEIT.MOLECULAR WEIGHT>
379.304

> <BIOSOLVEIT.MOLECULE_CHECKSUM>
LTI4LjcyOTI7MS4xOTcwNQ==

> <BIOSOLVEIT.TORSION_QUALITY range: red, yellow, green, not rotatable>
green

> <BIOSOLVEIT.TPSA>
121.78

$$$$
