1JCQ_739_1
foHydescor03192112263D 1   1.00000     0.00000     0
Hydescorer 1.1.0 fol007
 74 74  0  0  0  0            999 V2000
   22.1263  138.5215    5.8159 C   0  0  0  0  0  0  0  0  0  0  0  0
   21.8297  137.0264    5.6729 C   0  0  0  0  0  0  0  0  0  0  0  0
   20.8247  136.6860    4.5361 C   0  0  1  0  0  0  0  0  0  0  0  0
   21.3456  137.2193    3.1831 C   0  0  0  0  0  0  0  0  0  0  0  0
   20.5575  135.1370    4.4594 C   0  0  1  0  0  0  0  0  0  0  0  0
   19.1805  134.7691    3.8429 C   0  0  0  0  0  0  0  0  0  0  0  0
   19.0892  133.3776    3.6074 O   0  0  0  0  0  0  0  0  0  0  0  0
   18.6146  133.1164    2.2976 C   0  0  1  0  0  0  0  0  0  0  0  0
   18.9046  134.3328    1.4070 C   0  0  0  0  0  0  0  0  0  0  0  0
   17.6364  134.8897    0.8136 C   0  0  0  0  0  0  0  0  0  0  0  0
   16.9965  135.9527    1.4419 C   0  0  0  0  0  0  0  0  0  0  0  0
   15.8260  136.4617    0.8893 C   0  0  0  0  0  0  0  0  0  0  0  0
   15.3020  135.9151   -0.2767 C   0  0  0  0  0  0  0  0  0  0  0  0
   15.9487  134.8515   -0.8982 C   0  0  0  0  0  0  0  0  0  0  0  0
   17.1198  134.3356   -0.3532 C   0  0  0  0  0  0  0  0  0  0  0  0
   19.2971  131.9027    1.7187 C   0  0  0  0  0  0  0  0  0  0  0  0
   20.2959  131.4168    2.3152 O   0  0  0  0  0  0  0  0  0  0  0  0
   18.8002  131.2926    0.5165 N   0  0  0  0  0  0  0  0  0  0  0  0
   19.4030  130.0974   -0.0822 C   0  0  2  0  0  0  0  0  0  0  0  0
   19.8907  130.3947   -1.5098 C   0  0  0  0  0  0  0  0  0  0  0  0
   21.3451  129.9565   -1.7175 C   0  0  0  0  0  0  0  0  0  0  0  0
   21.8513  130.1736   -3.4182 S   0  0  0  0  0  0  0  0  0  0  0  0
   23.5543  129.6939   -3.6088 C   0  0  0  0  0  0  0  0  0  0  0  0
   21.7043  131.6213   -3.7927 O   0  0  0  0  0  0  0  0  0  0  0  0
   20.9970  129.3384   -4.3299 O   0  0  0  0  0  0  0  0  0  0  0  0
   18.3907  128.9887   -0.1032 C   0  0  0  0  0  0  0  0  0  0  0  0
   17.1820  129.2392   -0.3521 O   0  0  0  0  0  0  0  0  0  0  0  0
   18.7785  127.6807    0.1628 O   0  5  0  0  0  0  0  0  0  0  0  0
   21.6591  134.3621    3.8246 N   0  3  0  0  0  0  0  0  0  0  0  0
   22.9619  134.4444    4.5180 C   0  0  0  0  0  0  0  0  0  0  0  0
   23.2474  133.1965    5.3934 C   0  0  1  0  0  0  0  0  0  0  0  0
   22.1702  133.0294    6.3789 N   0  3  0  0  0  0  0  0  0  0  0  0
   23.3958  131.9067    4.5501 C   0  0  0  0  0  0  0  0  0  0  0  0
   24.5044  132.1384    3.1706 S   0  0  0  0  0  0  0  0  0  0  0  0
   22.7766  138.6625    6.5623 H   0  0  0  0  0  0  0  0  0  0  0  0
   22.5180  138.8666    4.9630 H   0  0  0  0  0  0  0  0  0  0  0  0
   21.2781  139.0119    6.0156 H   0  0  0  0  0  0  0  0  0  0  0  0
   21.4496  136.6974    6.5374 H   0  0  0  0  0  0  0  0  0  0  0  0
   22.6896  136.5520    5.4848 H   0  0  0  0  0  0  0  0  0  0  0  0
   19.9583  137.1424    4.7387 H   0  0  0  0  0  0  0  0  0  0  0  0
   20.6908  136.9940    2.4617 H   0  0  0  0  0  0  0  0  0  0  0  0
   21.4549  138.2119    3.2359 H   0  0  0  0  0  0  0  0  0  0  0  0
   22.2281  136.7972    2.9759 H   0  0  0  0  0  0  0  0  0  0  0  0
   20.5199  134.8232    5.4082 H   0  0  0  0  0  0  0  0  0  0  0  0
   19.0690  135.2559    2.9765 H   0  0  0  0  0  0  0  0  0  0  0  0
   18.4552  135.0427    4.4747 H   0  0  0  0  0  0  0  0  0  0  0  0
   17.6278  132.9574    2.3290 H   0  0  0  0  0  0  0  0  0  0  0  0
   19.5169  134.0561    0.6664 H   0  0  0  0  0  0  0  0  0  0  0  0
   19.3459  135.0418    1.9571 H   0  0  0  0  0  0  0  0  0  0  0  0
   17.3733  136.3463    2.2805 H   0  0  0  0  0  0  0  0  0  0  0  0
   15.3583  137.2258    1.3335 H   0  0  0  0  0  0  0  0  0  0  0  0
   14.4603  136.2865   -0.6686 H   0  0  0  0  0  0  0  0  0  0  0  0
   15.5715  134.4580   -1.7366 H   0  0  0  0  0  0  0  0  0  0  0  0
   17.5874  133.5713   -0.7973 H   0  0  0  0  0  0  0  0  0  0  0  0
   18.0063  131.7020    0.0671 H   0  0  0  0  0  0  0  0  0  0  0  0
   20.1835  129.8137    0.4749 H   0  0  0  0  0  0  0  0  0  0  0  0
   19.8220  131.3783   -1.6771 H   0  0  0  0  0  0  0  0  0  0  0  0
   19.3090  129.9047   -2.1591 H   0  0  0  0  0  0  0  0  0  0  0  0
   21.4328  128.9910   -1.4721 H   0  0  0  0  0  0  0  0  0  0  0  0
   21.9382  130.5053   -1.1284 H   0  0  0  0  0  0  0  0  0  0  0  0
   23.8308  129.8177   -4.5618 H   0  0  0  0  0  0  0  0  0  0  0  0
   24.1285  130.2613   -3.0187 H   0  0  0  0  0  0  0  0  0  0  0  0
   23.6605  128.7330   -3.3531 H   0  0  0  0  0  0  0  0  0  0  0  0
   21.7818  134.7038    2.8928 H   0  0  0  0  0  0  0  0  0  0  0  0
   21.3845  133.4011    3.7938 H   0  0  0  0  0  0  0  0  0  0  0  0
   22.9627  135.2546    5.1042 H   0  0  0  0  0  0  0  0  0  0  0  0
   23.6854  134.5280    3.8327 H   0  0  0  0  0  0  0  0  0  0  0  0
   24.1036  133.3488    5.8872 H   0  0  0  0  0  0  0  0  0  0  0  0
   22.4506  132.3626    7.0693 H   0  0  0  0  0  0  0  0  0  0  0  0
   21.9827  133.9071    6.8198 H   0  0  0  0  0  0  0  0  0  0  0  0
   21.3443  132.7048    5.9180 H   0  0  0  0  0  0  0  0  0  0  0  0
   22.4964  131.6430    4.2015 H   0  0  0  0  0  0  0  0  0  0  0  0
   23.7538  131.1780    5.1338 H   0  0  0  0  0  0  0  0  0  0  0  0
   24.5575  131.2925    2.6399 H   0  0  0  0  0  0  0  0  0  0  0  0
  1  2  1  0  0  0  0
  2  3  1  0  0  0  0
  3  4  1  0  0  0  0
  3  5  1  0  0  0  0
  5  6  1  0  0  0  0
  6  7  1  0  0  0  0
  7  8  1  0  0  0  0
  8  9  1  0  0  0  0
  9 10  1  0  0  0  0
 10 11  2  0  0  0  0
 11 12  1  0  0  0  0
 12 13  2  0  0  0  0
 13 14  1  0  0  0  0
 14 15  2  0  0  0  0
  8 16  1  0  0  0  0
 16 17  2  0  0  0  0
 16 18  1  0  0  0  0
 18 19  1  0  0  0  0
 19 20  1  0  0  0  0
 20 21  1  0  0  0  0
 21 22  1  0  0  0  0
 22 23  1  0  0  0  0
 22 24  2  0  0  0  0
 22 25  2  0  0  0  0
 19 26  1  0  0  0  0
 26 27  2  0  0  0  0
 26 28  1  0  0  0  0
  5 29  1  0  0  0  0
 29 30  1  0  0  0  0
 30 31  1  0  0  0  0
 31 32  1  0  0  0  0
 31 33  1  0  0  0  0
 33 34  1  0  0  0  0
 15 10  1  0  0  0  0
  1 35  1  0  0  0  0
  1 36  1  0  0  0  0
  1 37  1  0  0  0  0
  2 38  1  0  0  0  0
  2 39  1  0  0  0  0
  3 40  1  0  0  0  0
  4 41  1  0  0  0  0
  4 42  1  0  0  0  0
  4 43  1  0  0  0  0
  5 44  1  0  0  0  0
  6 45  1  0  0  0  0
  6 46  1  0  0  0  0
  8 47  1  0  0  0  0
  9 48  1  0  0  0  0
  9 49  1  0  0  0  0
 11 50  1  0  0  0  0
 12 51  1  0  0  0  0
 13 52  1  0  0  0  0
 14 53  1  0  0  0  0
 15 54  1  0  0  0  0
 18 55  1  0  0  0  0
 19 56  1  0  0  0  0
 20 57  1  0  0  0  0
 20 58  1  0  0  0  0
 21 59  1  0  0  0  0
 21 60  1  0  0  0  0
 23 61  1  0  0  0  0
 23 62  1  0  0  0  0
 23 63  1  0  0  0  0
 29 64  1  0  0  0  0
 29 65  1  0  0  0  0
 30 66  1  0  0  0  0
 30 67  1  0  0  0  0
 31 68  1  0  0  0  0
 32 69  1  0  0  0  0
 32 70  1  0  0  0  0
 32 71  1  0  0  0  0
 33 72  1  0  0  0  0
 33 73  1  0  0  0  0
 34 74  1  0  0  0  0
M  CHG  3  28  -1  29   1  32   1
M  END
> <BIOSOLVEIT.HYDE_ESTIMATED_AFFINITY_LOWER_BOUNDARY [nM]>
17372.968120

> <BIOSOLVEIT.HYDE_ESTIMATED_AFFINITY_UPPER_BOUNDARY [nM]>
1726107.099815

> <BIOSOLVEIT.HYDE_LIGAND_EFFICIENCY range: ++, +, 0, -, -->
--

> <BIOSOLVEIT.HYDE_LIGAND_LIPOPHILIC_EFFICIENCY range: ++, +, 0, -, -->
0

> <BIOSOLVEIT.INTER_CLASH range: red, yellow, green>
green

> <BIOSOLVEIT.INTRA_CLASH range: red, yellow, green>
green

> <BIOSOLVEIT.LOGP>
-1.1671

> <BIOSOLVEIT.MOLECULAR WEIGHT>
518.714

> <BIOSOLVEIT.MOLECULE_CHECKSUM>
LTIxLjQ3MDg7MC42MzE0OTU=

> <BIOSOLVEIT.TORSION_QUALITY range: red, yellow, green, not rotatable>
red

> <BIOSOLVEIT.TPSA>
156.85

$$$$
1JCQ_739_2
foHydescor03192112263D 1   1.00000     0.00000     0
Hydescorer 1.1.0 fol007
 74 74  0  0  0  0            999 V2000
   20.7453  139.1464    3.1375 C   0  0  0  0  0  0  0  0  0  0  0  0
   20.3631  137.6647    3.1836 C   0  0  0  0  0  0  0  0  0  0  0  0
   19.7545  137.2096    4.5403 C   0  0  1  0  0  0  0  0  0  0  0  0
   18.4555  137.9922    4.8341 C   0  0  0  0  0  0  0  0  0  0  0  0
   19.4857  135.6590    4.5506 C   0  0  1  0  0  0  0  0  0  0  0  0
   19.3451  135.0386    3.1340 C   0  0  0  0  0  0  0  0  0  0  0  0
   18.8292  133.7239    3.2083 O   0  0  0  0  0  0  0  0  0  0  0  0
   18.3421  133.2998    1.9466 C   0  0  1  0  0  0  0  0  0  0  0  0
   18.5830  134.4119    0.9159 C   0  0  0  0  0  0  0  0  0  0  0  0
   17.2817  134.9819    0.4137 C   0  0  0  0  0  0  0  0  0  0  0  0
   16.7020  136.0551    1.0818 C   0  0  0  0  0  0  0  0  0  0  0  0
   15.5007  136.5761    0.6133 C   0  0  0  0  0  0  0  0  0  0  0  0
   14.8867  136.0316   -0.5090 C   0  0  0  0  0  0  0  0  0  0  0  0
   15.4738  134.9577   -1.1709 C   0  0  0  0  0  0  0  0  0  0  0  0
   16.6752  134.4297   -0.7099 C   0  0  0  0  0  0  0  0  0  0  0  0
   19.0503  132.0458    1.4992 C   0  0  0  0  0  0  0  0  0  0  0  0
   19.9536  131.5565    2.2302 O   0  0  0  0  0  0  0  0  0  0  0  0
   18.6832  131.4026    0.2680 N   0  0  0  0  0  0  0  0  0  0  0  0
   19.3153  130.1686   -0.2095 C   0  0  2  0  0  0  0  0  0  0  0  0
   19.8343  130.3473   -1.6457 C   0  0  0  0  0  0  0  0  0  0  0  0
   21.3225  129.9971   -1.7610 C   0  0  0  0  0  0  0  0  0  0  0  0
   21.8931  130.1378   -3.4493 S   0  0  0  0  0  0  0  0  0  0  0  0
   23.5909  129.6161   -3.5598 C   0  0  0  0  0  0  0  0  0  0  0  0
   21.7911  131.5726   -3.8836 O   0  0  0  0  0  0  0  0  0  0  0  0
   21.0535  129.2856   -4.3589 O   0  0  0  0  0  0  0  0  0  0  0  0
   18.3175  129.0480   -0.1573 C   0  0  0  0  0  0  0  0  0  0  0  0
   17.1014  129.2706   -0.3963 O   0  0  0  0  0  0  0  0  0  0  0  0
   18.7271  127.7596    0.1664 O   0  5  0  0  0  0  0  0  0  0  0  0
   20.4413  134.8832    5.3887 N   0  3  0  0  0  0  0  0  0  0  0  0
   21.8649  135.0439    5.0253 C   0  0  0  0  0  0  0  0  0  0  0  0
   22.6776  133.7374    5.2199 C   0  0  1  0  0  0  0  0  0  0  0  0
   22.2964  133.1051    6.4905 N   0  3  0  0  0  0  0  0  0  0  0  0
   22.4773  132.7397    4.0531 C   0  0  0  0  0  0  0  0  0  0  0  0
   22.7929  133.4982    2.4685 S   0  0  0  0  0  0  0  0  0  0  0  0
   21.1276  139.3642    2.2395 H   0  0  0  0  0  0  0  0  0  0  0  0
   19.9320  139.7055    3.2981 H   0  0  0  0  0  0  0  0  0  0  0  0
   21.4260  139.3372    3.8447 H   0  0  0  0  0  0  0  0  0  0  0  0
   21.1853  137.1224    3.0102 H   0  0  0  0  0  0  0  0  0  0  0  0
   19.6913  137.4909    2.4636 H   0  0  0  0  0  0  0  0  0  0  0  0
   20.4138  137.4167    5.2631 H   0  0  0  0  0  0  0  0  0  0  0  0
   18.0749  137.6903    5.7082 H   0  0  0  0  0  0  0  0  0  0  0  0
   18.6586  138.9704    4.8791 H   0  0  0  0  0  0  0  0  0  0  0  0
   17.7921  137.8227    4.1053 H   0  0  0  0  0  0  0  0  0  0  0  0
   18.5922  135.5437    4.9846 H   0  0  0  0  0  0  0  0  0  0  0  0
   20.2441  135.0134    2.6968 H   0  0  0  0  0  0  0  0  0  0  0  0
   18.7252  135.6033    2.5892 H   0  0  0  0  0  0  0  0  0  0  0  0
   17.3610  133.1190    2.0147 H   0  0  0  0  0  0  0  0  0  0  0  0
   19.0937  134.0351    0.1431 H   0  0  0  0  0  0  0  0  0  0  0  0
   19.1158  135.1424    1.3431 H   0  0  0  0  0  0  0  0  0  0  0  0
   17.1433  136.4472    1.8890 H   0  0  0  0  0  0  0  0  0  0  0  0
   15.0756  137.3476    1.0868 H   0  0  0  0  0  0  0  0  0  0  0  0
   14.0232  136.4117   -0.8406 H   0  0  0  0  0  0  0  0  0  0  0  0
   15.0321  134.5657   -1.9778 H   0  0  0  0  0  0  0  0  0  0  0  0
   17.1002  133.6580   -1.1831 H   0  0  0  0  0  0  0  0  0  0  0  0
   17.9631  131.8157   -0.2894 H   0  0  0  0  0  0  0  0  0  0  0  0
   20.0851  129.9459    0.3885 H   0  0  0  0  0  0  0  0  0  0  0  0
   19.7037  131.2997   -1.9210 H   0  0  0  0  0  0  0  0  0  0  0  0
   19.3130  129.7497   -2.2550 H   0  0  0  0  0  0  0  0  0  0  0  0
   21.4615  129.0578   -1.4473 H   0  0  0  0  0  0  0  0  0  0  0  0
   21.8498  130.6222   -1.1855 H   0  0  0  0  0  0  0  0  0  0  0  0
   23.9036  129.6973   -4.5062 H   0  0  0  0  0  0  0  0  0  0  0  0
   24.1561  130.1941   -2.9712 H   0  0  0  0  0  0  0  0  0  0  0  0
   23.6669  128.6639   -3.2642 H   0  0  0  0  0  0  0  0  0  0  0  0
   20.2082  133.9141    5.3084 H   0  0  0  0  0  0  0  0  0  0  0  0
   20.3288  135.1756    6.3384 H   0  0  0  0  0  0  0  0  0  0  0  0
   22.2640  135.7586    5.5997 H   0  0  0  0  0  0  0  0  0  0  0  0
   21.9220  135.3173    4.0651 H   0  0  0  0  0  0  0  0  0  0  0  0
   23.6478  133.9752    5.2664 H   0  0  0  0  0  0  0  0  0  0  0  0
   23.0540  132.5442    6.8242 H   0  0  0  0  0  0  0  0  0  0  0  0
   22.0836  133.8128    7.1644 H   0  0  0  0  0  0  0  0  0  0  0  0
   21.4921  132.5284    6.3476 H   0  0  0  0  0  0  0  0  0  0  0  0
   21.5346  132.4069    4.0704 H   0  0  0  0  0  0  0  0  0  0  0  0
   23.1047  131.9704    4.1741 H   0  0  0  0  0  0  0  0  0  0  0  0
   23.7351  133.8322    2.4406 H   0  0  0  0  0  0  0  0  0  0  0  0
  1  2  1  0  0  0  0
  2  3  1  0  0  0  0
  3  4  1  0  0  0  0
  3  5  1  0  0  0  0
  5  6  1  0  0  0  0
  6  7  1  0  0  0  0
  7  8  1  0  0  0  0
  8  9  1  0  0  0  0
  9 10  1  0  0  0  0
 10 11  2  0  0  0  0
 11 12  1  0  0  0  0
 12 13  2  0  0  0  0
 13 14  1  0  0  0  0
 14 15  2  0  0  0  0
  8 16  1  0  0  0  0
 16 17  2  0  0  0  0
 16 18  1  0  0  0  0
 18 19  1  0  0  0  0
 19 20  1  0  0  0  0
 20 21  1  0  0  0  0
 21 22  1  0  0  0  0
 22 23  1  0  0  0  0
 22 24  2  0  0  0  0
 22 25  2  0  0  0  0
 19 26  1  0  0  0  0
 26 27  2  0  0  0  0
 26 28  1  0  0  0  0
  5 29  1  0  0  0  0
 29 30  1  0  0  0  0
 30 31  1  0  0  0  0
 31 32  1  0  0  0  0
 31 33  1  0  0  0  0
 33 34  1  0  0  0  0
 15 10  1  0  0  0  0
  1 35  1  0  0  0  0
  1 36  1  0  0  0  0
  1 37  1  0  0  0  0
  2 38  1  0  0  0  0
  2 39  1  0  0  0  0
  3 40  1  0  0  0  0
  4 41  1  0  0  0  0
  4 42  1  0  0  0  0
  4 43  1  0  0  0  0
  5 44  1  0  0  0  0
  6 45  1  0  0  0  0
  6 46  1  0  0  0  0
  8 47  1  0  0  0  0
  9 48  1  0  0  0  0
  9 49  1  0  0  0  0
 11 50  1  0  0  0  0
 12 51  1  0  0  0  0
 13 52  1  0  0  0  0
 14 53  1  0  0  0  0
 15 54  1  0  0  0  0
 18 55  1  0  0  0  0
 19 56  1  0  0  0  0
 20 57  1  0  0  0  0
 20 58  1  0  0  0  0
 21 59  1  0  0  0  0
 21 60  1  0  0  0  0
 23 61  1  0  0  0  0
 23 62  1  0  0  0  0
 23 63  1  0  0  0  0
 29 64  1  0  0  0  0
 29 65  1  0  0  0  0
 30 66  1  0  0  0  0
 30 67  1  0  0  0  0
 31 68  1  0  0  0  0
 32 69  1  0  0  0  0
 32 70  1  0  0  0  0
 32 71  1  0  0  0  0
 33 72  1  0  0  0  0
 33 73  1  0  0  0  0
 34 74  1  0  0  0  0
M  CHG  3  28  -1  29   1  32   1
M  END
> <BIOSOLVEIT.HYDE_ESTIMATED_AFFINITY_LOWER_BOUNDARY [nM]>
58892.187951

> <BIOSOLVEIT.HYDE_ESTIMATED_AFFINITY_UPPER_BOUNDARY [nM]>
5851287.071113

> <BIOSOLVEIT.HYDE_LIGAND_EFFICIENCY range: ++, +, 0, -, -->
--

> <BIOSOLVEIT.HYDE_LIGAND_LIPOPHILIC_EFFICIENCY range: ++, +, 0, -, -->
0

> <BIOSOLVEIT.INTER_CLASH range: red, yellow, green>
green

> <BIOSOLVEIT.INTRA_CLASH range: red, yellow, green>
green

> <BIOSOLVEIT.LOGP>
-1.1671

> <BIOSOLVEIT.MOLECULAR WEIGHT>
518.714

> <BIOSOLVEIT.MOLECULE_CHECKSUM>
LTE4LjQ0NDU7MC41NDI0ODc=

> <BIOSOLVEIT.TORSION_QUALITY range: red, yellow, green, not rotatable>
red

> <BIOSOLVEIT.TPSA>
156.85

$$$$
1JCQ_739_3
foHydescor03192112263D 1   1.00000     0.00000     0
Hydescorer 1.1.0 fol007
 74 74  0  0  0  0            999 V2000
   21.9161  138.3194    2.2861 C   0  0  0  0  0  0  0  0  0  0  0  0
   20.8456  138.4901    3.3671 C   0  0  0  0  0  0  0  0  0  0  0  0
   21.1409  137.7096    4.6794 C   0  0  1  0  0  0  0  0  0  0  0  0
   21.0633  138.6585    5.8960 C   0  0  0  0  0  0  0  0  0  0  0  0
   20.1527  136.4974    4.8539 C   0  0  1  0  0  0  0  0  0  0  0  0
   19.2901  136.2068    3.5957 C   0  0  0  0  0  0  0  0  0  0  0  0
   19.4860  134.8805    3.1456 O   0  0  0  0  0  0  0  0  0  0  0  0
   18.5063  134.5223    2.1859 C   0  0  1  0  0  0  0  0  0  0  0  0
   18.5051  135.5633    1.0574 C   0  0  0  0  0  0  0  0  0  0  0  0
   17.1757  135.5988    0.3488 C   0  0  0  0  0  0  0  0  0  0  0  0
   16.2203  136.5332    0.7337 C   0  0  0  0  0  0  0  0  0  0  0  0
   14.9952  136.5603    0.0759 C   0  0  0  0  0  0  0  0  0  0  0  0
   14.7287  135.6649   -0.9538 C   0  0  0  0  0  0  0  0  0  0  0  0
   15.6905  134.7333   -1.3319 C   0  0  0  0  0  0  0  0  0  0  0  0
   16.9186  134.6983   -0.6800 C   0  0  0  0  0  0  0  0  0  0  0  0
   18.8039  133.1621    1.6068 C   0  0  0  0  0  0  0  0  0  0  0  0
   18.3819  132.1347    2.2036 O   0  0  0  0  0  0  0  0  0  0  0  0
   19.5372  133.0392    0.3773 N   0  0  0  0  0  0  0  0  0  0  0  0
   19.8367  131.7481   -0.2500 C   0  0  2  0  0  0  0  0  0  0  0  0
   20.3874  131.9518   -1.6710 C   0  0  0  0  0  0  0  0  0  0  0  0
   21.7427  132.6686   -1.6590 C   0  0  0  0  0  0  0  0  0  0  0  0
   22.3519  132.9319   -3.3190 S   0  0  0  0  0  0  0  0  0  0  0  0
   22.9780  131.4044   -3.9833 C   0  0  0  0  0  0  0  0  0  0  0  0
   23.4634  133.9421   -3.2791 O   0  0  0  0  0  0  0  0  0  0  0  0
   21.2516  133.4430   -4.2060 O   0  0  0  0  0  0  0  0  0  0  0  0
   18.5872  130.9169   -0.2952 C   0  0  0  0  0  0  0  0  0  0  0  0
   17.6367  131.2427   -1.0542 O   0  0  0  0  0  0  0  0  0  0  0  0
   18.4663  129.7891    0.5084 O   0  5  0  0  0  0  0  0  0  0  0  0
   20.7986  135.2571    5.3656 N   0  3  0  0  0  0  0  0  0  0  0  0
   22.2761  135.2609    5.3296 C   0  0  0  0  0  0  0  0  0  0  0  0
   22.8737  133.8301    5.3598 C   0  0  1  0  0  0  0  0  0  0  0  0
   22.2125  133.0425    6.4096 N   0  3  0  0  0  0  0  0  0  0  0  0
   22.7424  133.1078    3.9967 C   0  0  0  0  0  0  0  0  0  0  0  0
   22.7385  134.2588    2.6324 S   0  0  0  0  0  0  0  0  0  0  0  0
   21.6593  138.8471    1.4765 H   0  0  0  0  0  0  0  0  0  0  0  0
   22.7950  138.6471    2.6327 H   0  0  0  0  0  0  0  0  0  0  0  0
   21.9931  137.3524    2.0431 H   0  0  0  0  0  0  0  0  0  0  0  0
   19.9732  138.1679    2.9993 H   0  0  0  0  0  0  0  0  0  0  0  0
   20.7750  139.4626    3.5889 H   0  0  0  0  0  0  0  0  0  0  0  0
   22.0716  137.3481    4.6247 H   0  0  0  0  0  0  0  0  0  0  0  0
   21.2550  138.1447    6.7322 H   0  0  0  0  0  0  0  0  0  0  0  0
   21.7376  139.3897    5.7920 H   0  0  0  0  0  0  0  0  0  0  0  0
   20.1471  139.0555    5.9512 H   0  0  0  0  0  0  0  0  0  0  0  0
   19.5067  136.7770    5.5642 H   0  0  0  0  0  0  0  0  0  0  0  0
   19.5489  136.8414    2.8675 H   0  0  0  0  0  0  0  0  0  0  0  0
   18.3250  136.3362    3.8233 H   0  0  0  0  0  0  0  0  0  0  0  0
   17.6065  134.5064    2.6219 H   0  0  0  0  0  0  0  0  0  0  0  0
   19.2199  135.3301    0.3980 H   0  0  0  0  0  0  0  0  0  0  0  0
   18.6917  136.4656    1.4460 H   0  0  0  0  0  0  0  0  0  0  0  0
   16.4117  137.1775    1.4741 H   0  0  0  0  0  0  0  0  0  0  0  0
   14.3014  137.2282    0.3453 H   0  0  0  0  0  0  0  0  0  0  0  0
   13.8458  135.6905   -1.4227 H   0  0  0  0  0  0  0  0  0  0  0  0
   15.4987  134.0889   -2.0721 H   0  0  0  0  0  0  0  0  0  0  0  0
   17.6124  134.0303   -0.9490 H   0  0  0  0  0  0  0  0  0  0  0  0
   19.8583  133.8731   -0.0715 H   0  0  0  0  0  0  0  0  0  0  0  0
   20.5235  131.2720    0.2992 H   0  0  0  0  0  0  0  0  0  0  0  0
   19.7359  132.5001   -2.1952 H   0  0  0  0  0  0  0  0  0  0  0  0
   20.4976  131.0584   -2.1066 H   0  0  0  0  0  0  0  0  0  0  0  0
   22.4019  132.1109   -1.1547 H   0  0  0  0  0  0  0  0  0  0  0  0
   21.6391  133.5539   -1.2056 H   0  0  0  0  0  0  0  0  0  0  0  0
   23.3169  131.5586   -4.9114 H   0  0  0  0  0  0  0  0  0  0  0  0
   23.7242  131.0713   -3.4070 H   0  0  0  0  0  0  0  0  0  0  0  0
   22.2447  130.7249   -4.0050 H   0  0  0  0  0  0  0  0  0  0  0  0
   20.4769  134.4889    4.8120 H   0  0  0  0  0  0  0  0  0  0  0  0
   20.5119  135.1271    6.3147 H   0  0  0  0  0  0  0  0  0  0  0  0
   22.6151  135.7670    6.1226 H   0  0  0  0  0  0  0  0  0  0  0  0
   22.5754  135.7160    4.4909 H   0  0  0  0  0  0  0  0  0  0  0  0
   23.8454  133.9005    5.5854 H   0  0  0  0  0  0  0  0  0  0  0  0
   22.7883  132.2622    6.6535 H   0  0  0  0  0  0  0  0  0  0  0  0
   22.0691  133.6160    7.2162 H   0  0  0  0  0  0  0  0  0  0  0  0
   21.3300  132.7135    6.0735 H   0  0  0  0  0  0  0  0  0  0  0  0
   21.8867  132.5905    3.9858 H   0  0  0  0  0  0  0  0  0  0  0  0
   23.5130  132.4799    3.8878 H   0  0  0  0  0  0  0  0  0  0  0  0
   22.5900  133.7618    1.7774 H   0  0  0  0  0  0  0  0  0  0  0  0
  1  2  1  0  0  0  0
  2  3  1  0  0  0  0
  3  4  1  0  0  0  0
  3  5  1  0  0  0  0
  5  6  1  0  0  0  0
  6  7  1  0  0  0  0
  7  8  1  0  0  0  0
  8  9  1  0  0  0  0
  9 10  1  0  0  0  0
 10 11  2  0  0  0  0
 11 12  1  0  0  0  0
 12 13  2  0  0  0  0
 13 14  1  0  0  0  0
 14 15  2  0  0  0  0
  8 16  1  0  0  0  0
 16 17  2  0  0  0  0
 16 18  1  0  0  0  0
 18 19  1  0  0  0  0
 19 20  1  0  0  0  0
 20 21  1  0  0  0  0
 21 22  1  0  0  0  0
 22 23  1  0  0  0  0
 22 24  2  0  0  0  0
 22 25  2  0  0  0  0
 19 26  1  0  0  0  0
 26 27  2  0  0  0  0
 26 28  1  0  0  0  0
  5 29  1  0  0  0  0
 29 30  1  0  0  0  0
 30 31  1  0  0  0  0
 31 32  1  0  0  0  0
 31 33  1  0  0  0  0
 33 34  1  0  0  0  0
 15 10  1  0  0  0  0
  1 35  1  0  0  0  0
  1 36  1  0  0  0  0
  1 37  1  0  0  0  0
  2 38  1  0  0  0  0
  2 39  1  0  0  0  0
  3 40  1  0  0  0  0
  4 41  1  0  0  0  0
  4 42  1  0  0  0  0
  4 43  1  0  0  0  0
  5 44  1  0  0  0  0
  6 45  1  0  0  0  0
  6 46  1  0  0  0  0
  8 47  1  0  0  0  0
  9 48  1  0  0  0  0
  9 49  1  0  0  0  0
 11 50  1  0  0  0  0
 12 51  1  0  0  0  0
 13 52  1  0  0  0  0
 14 53  1  0  0  0  0
 15 54  1  0  0  0  0
 18 55  1  0  0  0  0
 19 56  1  0  0  0  0
 20 57  1  0  0  0  0
 20 58  1  0  0  0  0
 21 59  1  0  0  0  0
 21 60  1  0  0  0  0
 23 61  1  0  0  0  0
 23 62  1  0  0  0  0
 23 63  1  0  0  0  0
 29 64  1  0  0  0  0
 29 65  1  0  0  0  0
 30 66  1  0  0  0  0
 30 67  1  0  0  0  0
 31 68  1  0  0  0  0
 32 69  1  0  0  0  0
 32 70  1  0  0  0  0
 32 71  1  0  0  0  0
 33 72  1  0  0  0  0
 33 73  1  0  0  0  0
 34 74  1  0  0  0  0
M  CHG  3  28  -1  29   1  32   1
M  END
> <BIOSOLVEIT.HYDE_ESTIMATED_AFFINITY_LOWER_BOUNDARY [nM]>
39614209.707162

> <BIOSOLVEIT.HYDE_ESTIMATED_AFFINITY_UPPER_BOUNDARY [nM]>
3935905952.150585

> <BIOSOLVEIT.HYDE_LIGAND_EFFICIENCY range: ++, +, 0, -, -->
--

> <BIOSOLVEIT.HYDE_LIGAND_LIPOPHILIC_EFFICIENCY range: ++, +, 0, -, -->
--

> <BIOSOLVEIT.INTER_CLASH range: red, yellow, green>
green

> <BIOSOLVEIT.INTRA_CLASH range: red, yellow, green>
yellow

> <BIOSOLVEIT.LOGP>
-1.1671

> <BIOSOLVEIT.MOLECULAR WEIGHT>
518.714

> <BIOSOLVEIT.MOLECULE_CHECKSUM>
LTIuMzAzNDg7MC4wNjc3NDk0

> <BIOSOLVEIT.TORSION_QUALITY range: red, yellow, green, not rotatable>
red

> <BIOSOLVEIT.TPSA>
156.85

$$$$
1SA4_JAN_1
foHydescor03192112263D 1   1.00000     0.00000     0
Hydescorer 1.1.0 fol007
 56 60  0  0  0  0            999 V2000
   14.6763  129.5971   -3.7710 C   0  0  0  0  0  0  0  0  0  0  0  0
   13.8165  130.6302   -3.1746 N   0  0  0  0  0  0  0  0  0  0  0  0
   12.4990  130.4746   -2.8565 C   0  0  0  0  0  0  0  0  0  0  0  0
   12.0730  131.6087   -2.3453 N   0  0  0  0  0  0  0  0  0  0  0  0
   13.1067  132.5020   -2.3294 C   0  0  0  0  0  0  0  0  0  0  0  0
   14.2101  131.8927   -2.8513 C   0  0  0  0  0  0  0  0  0  0  0  0
   15.6099  132.5090   -3.0290 C   0  0  2  0  0  0  0  0  0  0  0  0
   16.6204  131.4229   -3.0389 N   0  0  0  0  0  0  0  0  0  0  0  0
   15.9589  133.4592   -1.8554 C   0  0  0  0  0  0  0  0  0  0  0  0
   15.2156  134.6220   -1.6767 C   0  0  0  0  0  0  0  0  0  0  0  0
   15.5155  135.4848   -0.6277 C   0  0  0  0  0  0  0  0  0  0  0  0
   16.5622  135.1692    0.2315 C   0  0  0  0  0  0  0  0  0  0  0  0
   16.9588  136.2631    1.5786 Cl  0  0  0  0  0  0  0  0  0  0  0  0
   17.3059  134.0075    0.0545 C   0  0  0  0  0  0  0  0  0  0  0  0
   17.0052  133.1453   -0.9947 C   0  0  0  0  0  0  0  0  0  0  0  0
   15.6499  133.2137   -4.3691 C   0  0  0  0  0  0  0  0  0  0  0  0
   14.7248  132.8792   -5.3484 C   0  0  0  0  0  0  0  0  0  0  0  0
   14.8022  133.5537   -6.5595 C   0  0  0  0  0  0  0  0  0  0  0  0
   15.7698  134.5279   -6.7847 C   0  0  0  0  0  0  0  0  0  0  0  0
   16.6787  134.8360   -5.7822 C   0  0  0  0  0  0  0  0  0  0  0  0
   16.6277  134.1784   -4.5585 C   0  0  0  0  0  0  0  0  0  0  0  0
   17.6932  135.8488   -6.0208 C   0  0  0  0  0  0  0  0  0  0  0  0
   18.6689  136.1985   -5.0049 C   0  0  0  0  0  0  0  0  0  0  0  0
   18.6092  137.4514   -4.4039 C   0  0  0  0  0  0  0  0  0  0  0  0
   19.5485  137.7786   -3.4310 C   0  0  0  0  0  0  0  0  0  0  0  0
   20.5362  136.8731   -3.0580 C   0  0  0  0  0  0  0  0  0  0  0  0
   20.5765  135.6258   -3.6724 C   0  0  0  0  0  0  0  0  0  0  0  0
   21.8334  134.4534   -3.2100 Cl  0  0  0  0  0  0  0  0  0  0  0  0
   19.6482  135.2776   -4.6481 C   0  0  0  0  0  0  0  0  0  0  0  0
   17.7838  136.4989   -7.1669 C   0  0  0  0  0  0  0  0  0  0  0  0
   16.8400  136.1932   -8.2247 C   0  0  0  0  0  0  0  0  0  0  0  0
   16.9231  136.7944   -9.2837 O   0  0  0  0  0  0  0  0  0  0  0  0
   15.8603  135.2161   -8.0013 N   0  0  0  0  0  0  0  0  0  0  0  0
   14.9296  134.9412   -9.1089 C   0  0  0  0  0  0  0  0  0  0  0  0
   15.5964  129.9654   -3.9042 H   0  0  0  0  0  0  0  0  0  0  0  0
   14.7189  128.8059   -3.1609 H   0  0  0  0  0  0  0  0  0  0  0  0
   14.2981  129.3175   -4.6535 H   0  0  0  0  0  0  0  0  0  0  0  0
   11.9546  129.6462   -2.9884 H   0  0  0  0  0  0  0  0  0  0  0  0
   13.0620  133.4425   -1.9925 H   0  0  0  0  0  0  0  0  0  0  0  0
   17.5298  131.8149   -3.1784 H   0  0  0  0  0  0  0  0  0  0  0  0
   16.5970  130.9378   -2.1646 H   0  0  0  0  0  0  0  0  0  0  0  0
   14.4658  134.8372   -2.3024 H   0  0  0  0  0  0  0  0  0  0  0  0
   14.9849  136.3217   -0.4931 H   0  0  0  0  0  0  0  0  0  0  0  0
   18.0556  133.7924    0.6804 H   0  0  0  0  0  0  0  0  0  0  0  0
   17.5358  132.3084   -1.1288 H   0  0  0  0  0  0  0  0  0  0  0  0
   14.0291  132.1791   -5.1877 H   0  0  0  0  0  0  0  0  0  0  0  0
   14.1493  133.3350   -7.2847 H   0  0  0  0  0  0  0  0  0  0  0  0
   17.2802  134.3959   -3.8326 H   0  0  0  0  0  0  0  0  0  0  0  0
   17.9018  138.1073   -4.6672 H   0  0  0  0  0  0  0  0  0  0  0  0
   19.5129  138.6773   -2.9938 H   0  0  0  0  0  0  0  0  0  0  0  0
   21.2079  137.1155   -2.3580 H   0  0  0  0  0  0  0  0  0  0  0  0
   19.6843  134.3793   -5.0860 H   0  0  0  0  0  0  0  0  0  0  0  0
   18.4923  137.1913   -7.3032 H   0  0  0  0  0  0  0  0  0  0  0  0
   14.2821  134.2313   -8.8319 H   0  0  0  0  0  0  0  0  0  0  0  0
   14.4302  135.7762   -9.3397 H   0  0  0  0  0  0  0  0  0  0  0  0
   15.4446  134.6293   -9.9074 H   0  0  0  0  0  0  0  0  0  0  0  0
  1  2  1  0  0  0  0
  2  3  1  0  0  0  0
  3  4  2  0  0  0  0
  4  5  1  0  0  0  0
  5  6  2  0  0  0  0
  6  7  1  0  0  0  0
  7  8  1  0  0  0  0
  7  9  1  0  0  0  0
  9 10  2  0  0  0  0
 10 11  1  0  0  0  0
 11 12  2  0  0  0  0
 12 13  1  0  0  0  0
 12 14  1  0  0  0  0
 14 15  2  0  0  0  0
  7 16  1  0  0  0  0
 16 17  2  0  0  0  0
 17 18  1  0  0  0  0
 18 19  2  0  0  0  0
 19 20  1  0  0  0  0
 20 21  2  0  0  0  0
 20 22  1  0  0  0  0
 22 23  1  0  0  0  0
 23 24  2  0  0  0  0
 24 25  1  0  0  0  0
 25 26  2  0  0  0  0
 26 27  1  0  0  0  0
 27 28  1  0  0  0  0
 27 29  2  0  0  0  0
 22 30  2  0  0  0  0
 30 31  1  0  0  0  0
 31 32  2  0  0  0  0
 31 33  1  0  0  0  0
 33 34  1  0  0  0  0
  6  2  1  0  0  0  0
 15  9  1  0  0  0  0
 21 16  1  0  0  0  0
 29 23  1  0  0  0  0
 33 19  1  0  0  0  0
  1 35  1  0  0  0  0
  1 36  1  0  0  0  0
  1 37  1  0  0  0  0
  3 38  1  0  0  0  0
  5 39  1  0  0  0  0
 34 56  1  0  0  0  0
  8 40  1  0  0  0  0
  8 41  1  0  0  0  0
 10 42  1  0  0  0  0
 11 43  1  0  0  0  0
 14 44  1  0  0  0  0
 15 45  1  0  0  0  0
 17 46  1  0  0  0  0
 18 47  1  0  0  0  0
 21 48  1  0  0  0  0
 24 49  1  0  0  0  0
 25 50  1  0  0  0  0
 26 51  1  0  0  0  0
 29 52  1  0  0  0  0
 30 53  1  0  0  0  0
 34 54  1  0  0  0  0
 34 55  1  0  0  0  0
M  END
> <BIOSOLVEIT.HYDE_ESTIMATED_AFFINITY_LOWER_BOUNDARY [nM]>
555725.762260

> <BIOSOLVEIT.HYDE_ESTIMATED_AFFINITY_UPPER_BOUNDARY [nM]>
55214640.191224

> <BIOSOLVEIT.HYDE_LIGAND_EFFICIENCY range: ++, +, 0, -, -->
--

> <BIOSOLVEIT.HYDE_LIGAND_LIPOPHILIC_EFFICIENCY range: ++, +, 0, -, -->
--

> <BIOSOLVEIT.INTER_CLASH range: red, yellow, green>
green

> <BIOSOLVEIT.INTRA_CLASH range: red, yellow, green>
yellow

> <BIOSOLVEIT.LOGP>
5.3856

> <BIOSOLVEIT.MOLECULAR WEIGHT>
489.404

> <BIOSOLVEIT.MOLECULE_CHECKSUM>
LTEyLjg4MDQ7MC4zNzg4MzQ=

> <BIOSOLVEIT.TORSION_QUALITY range: red, yellow, green, not rotatable>
green

> <BIOSOLVEIT.TPSA>
64.15

$$$$
1SA4_JAN_2
foHydescor03192112263D 1   1.00000     0.00000     0
Hydescorer 1.1.0 fol007
 57 61  0  0  0  0            999 V2000
   15.0626  129.6802   -3.8838 C   0  0  0  0  0  0  0  0  0  0  0  0
   14.1004  130.5885   -3.2424 N   0  0  0  0  0  0  0  0  0  0  0  0
   12.7947  130.2961   -2.9759 C   0  0  0  0  0  0  0  0  0  0  0  0
   12.2574  131.3488   -2.3995 N   0  0  0  0  0  0  0  0  0  0  0  0
   13.2068  132.3251   -2.2897 C   0  0  0  0  0  0  0  0  0  0  0  0
   14.3723  131.8536   -2.8196 C   0  0  0  0  0  0  0  0  0  0  0  0
   15.7155  132.6006   -2.9113 C   0  0  2  0  0  0  0  0  0  0  0  0
   16.8240  131.6220   -2.7916 N   0  3  0  0  0  0  0  0  0  0  0  0
   15.8702  133.6231   -1.7570 C   0  0  0  0  0  0  0  0  0  0  0  0
   15.0713  134.7625   -1.7450 C   0  0  0  0  0  0  0  0  0  0  0  0
   15.1970  135.6895   -0.7156 C   0  0  0  0  0  0  0  0  0  0  0  0
   16.1272  135.4608    0.2924 C   0  0  0  0  0  0  0  0  0  0  0  0
   16.3007  136.6375    1.6168 Cl  0  0  0  0  0  0  0  0  0  0  0  0
   16.9263  134.3227    0.2822 C   0  0  0  0  0  0  0  0  0  0  0  0
   16.7996  133.3964   -0.7477 C   0  0  0  0  0  0  0  0  0  0  0  0
   15.7999  133.2567   -4.2739 C   0  0  0  0  0  0  0  0  0  0  0  0
   14.9234  132.8689   -5.2779 C   0  0  0  0  0  0  0  0  0  0  0  0
   15.0400  133.5003   -6.5090 C   0  0  0  0  0  0  0  0  0  0  0  0
   15.9987  134.4842   -6.7296 C   0  0  0  0  0  0  0  0  0  0  0  0
   16.8586  134.8463   -5.7021 C   0  0  0  0  0  0  0  0  0  0  0  0
   16.7674  134.2328   -4.4580 C   0  0  0  0  0  0  0  0  0  0  0  0
   17.8640  135.8692   -5.9356 C   0  0  0  0  0  0  0  0  0  0  0  0
   18.7892  136.2746   -4.8935 C   0  0  0  0  0  0  0  0  0  0  0  0
   20.1369  135.9529   -5.0144 C   0  0  0  0  0  0  0  0  0  0  0  0
   21.0170  136.3451   -4.0108 C   0  0  0  0  0  0  0  0  0  0  0  0
   20.5658  137.0489   -2.8992 C   0  0  0  0  0  0  0  0  0  0  0  0
   19.2136  137.3598   -2.7995 C   0  0  0  0  0  0  0  0  0  0  0  0
   18.6158  138.2587   -1.3844 Cl  0  0  0  0  0  0  0  0  0  0  0  0
   18.3156  136.9770   -3.7905 C   0  0  0  0  0  0  0  0  0  0  0  0
   17.9916  136.4788   -7.1003 C   0  0  0  0  0  0  0  0  0  0  0  0
   17.0991  136.1165   -8.1844 C   0  0  0  0  0  0  0  0  0  0  0  0
   17.2164  136.6803   -9.2606 O   0  0  0  0  0  0  0  0  0  0  0  0
   16.1286  135.1293   -7.9661 N   0  0  0  0  0  0  0  0  0  0  0  0
   15.2509  134.7963   -9.1006 C   0  0  0  0  0  0  0  0  0  0  0  0
   15.9492  130.1358   -3.9629 H   0  0  0  0  0  0  0  0  0  0  0  0
   15.1608  128.8535   -3.3297 H   0  0  0  0  0  0  0  0  0  0  0  0
   14.7320  129.4336   -4.7947 H   0  0  0  0  0  0  0  0  0  0  0  0
   12.3294  129.4353   -3.1821 H   0  0  0  0  0  0  0  0  0  0  0  0
   13.0707  133.2311   -1.8890 H   0  0  0  0  0  0  0  0  0  0  0  0
   17.6687  132.1023   -2.5553 H   0  0  0  0  0  0  0  0  0  0  0  0
   16.6067  130.9582   -2.0760 H   0  0  0  0  0  0  0  0  0  0  0  0
   16.9438  131.1458   -3.6628 H   0  0  0  0  0  0  0  0  0  0  0  0
   14.4067  134.9148   -2.4764 H   0  0  0  0  0  0  0  0  0  0  0  0
   14.6257  136.5101   -0.7006 H   0  0  0  0  0  0  0  0  0  0  0  0
   17.5907  134.1705    1.0139 H   0  0  0  0  0  0  0  0  0  0  0  0
   17.3710  132.5758   -0.7621 H   0  0  0  0  0  0  0  0  0  0  0  0
   14.2341  132.1618   -5.1205 H   0  0  0  0  0  0  0  0  0  0  0  0
   14.4224  133.2426   -7.2522 H   0  0  0  0  0  0  0  0  0  0  0  0
   17.3845  134.4891   -3.7141 H   0  0  0  0  0  0  0  0  0  0  0  0
   20.4683  135.4472   -5.8108 H   0  0  0  0  0  0  0  0  0  0  0  0
   21.9877  136.1179   -4.0897 H   0  0  0  0  0  0  0  0  0  0  0  0
   21.2043  137.3274   -2.1818 H   0  0  0  0  0  0  0  0  0  0  0  0
   17.3447  137.2034   -3.7112 H   0  0  0  0  0  0  0  0  0  0  0  0
   18.6928  137.1794   -7.2325 H   0  0  0  0  0  0  0  0  0  0  0  0
   14.6050  134.0844   -8.8246 H   0  0  0  0  0  0  0  0  0  0  0  0
   14.7467  135.6125   -9.3829 H   0  0  0  0  0  0  0  0  0  0  0  0
   15.8048  134.4657   -9.8647 H   0  0  0  0  0  0  0  0  0  0  0  0
  1  2  1  0  0  0  0
  2  3  1  0  0  0  0
  3  4  2  0  0  0  0
  4  5  1  0  0  0  0
  5  6  2  0  0  0  0
  6  7  1  0  0  0  0
  7  8  1  0  0  0  0
  7  9  1  0  0  0  0
  9 10  2  0  0  0  0
 10 11  1  0  0  0  0
 11 12  2  0  0  0  0
 12 13  1  0  0  0  0
 12 14  1  0  0  0  0
 14 15  2  0  0  0  0
  7 16  1  0  0  0  0
 16 17  2  0  0  0  0
 17 18  1  0  0  0  0
 18 19  2  0  0  0  0
 19 20  1  0  0  0  0
 20 21  2  0  0  0  0
 20 22  1  0  0  0  0
 22 23  1  0  0  0  0
 23 24  2  0  0  0  0
 24 25  1  0  0  0  0
 25 26  2  0  0  0  0
 26 27  1  0  0  0  0
 27 28  1  0  0  0  0
 27 29  2  0  0  0  0
 22 30  2  0  0  0  0
 30 31  1  0  0  0  0
 31 32  2  0  0  0  0
 31 33  1  0  0  0  0
 33 34  1  0  0  0  0
  6  2  1  0  0  0  0
 15  9  1  0  0  0  0
 21 16  1  0  0  0  0
 29 23  1  0  0  0  0
 33 19  1  0  0  0  0
  1 35  1  0  0  0  0
  1 36  1  0  0  0  0
  1 37  1  0  0  0  0
  3 38  1  0  0  0  0
  5 39  1  0  0  0  0
  8 40  1  0  0  0  0
  8 41  1  0  0  0  0
  8 42  1  0  0  0  0
 10 43  1  0  0  0  0
 11 44  1  0  0  0  0
 14 45  1  0  0  0  0
 15 46  1  0  0  0  0
 17 47  1  0  0  0  0
 18 48  1  0  0  0  0
 21 49  1  0  0  0  0
 24 50  1  0  0  0  0
 25 51  1  0  0  0  0
 26 52  1  0  0  0  0
 29 53  1  0  0  0  0
 30 54  1  0  0  0  0
 34 55  1  0  0  0  0
 34 56  1  0  0  0  0
 34 57  1  0  0  0  0
M  CHG  1   8   1
M  END
> <BIOSOLVEIT.HYDE_ESTIMATED_AFFINITY_LOWER_BOUNDARY [nM]>
883910.722776

> <BIOSOLVEIT.HYDE_ESTIMATED_AFFINITY_UPPER_BOUNDARY [nM]>
87821756.401539

> <BIOSOLVEIT.HYDE_LIGAND_EFFICIENCY range: ++, +, 0, -, -->
--

> <BIOSOLVEIT.HYDE_LIGAND_LIPOPHILIC_EFFICIENCY range: ++, +, 0, -, -->
--

> <BIOSOLVEIT.INTER_CLASH range: red, yellow, green>
green

> <BIOSOLVEIT.INTRA_CLASH range: red, yellow, green>
yellow

> <BIOSOLVEIT.LOGP>
4.6688

> <BIOSOLVEIT.MOLECULAR WEIGHT>
490.412

> <BIOSOLVEIT.MOLECULE_CHECKSUM>
LTExLjcyOTk7MC4zNDQ5OTg=

> <BIOSOLVEIT.TORSION_QUALITY range: red, yellow, green, not rotatable>
green

> <BIOSOLVEIT.TPSA>
65.77

$$$$
1SA4_JAN_3
foHydescor03192112263D 1   1.00000     0.00000     0
Hydescorer 1.1.0 fol007
 56 60  0  0  0  0            999 V2000
   15.1509  129.7221   -3.9888 C   0  0  0  0  0  0  0  0  0  0  0  0
   14.1532  130.5955   -3.3533 N   0  0  0  0  0  0  0  0  0  0  0  0
   12.8690  130.2431   -3.0568 C   0  0  0  0  0  0  0  0  0  0  0  0
   12.2872  131.2811   -2.4971 N   0  0  0  0  0  0  0  0  0  0  0  0
   13.1862  132.3075   -2.4281 C   0  0  0  0  0  0  0  0  0  0  0  0
   14.3659  131.8834   -2.9666 C   0  0  0  0  0  0  0  0  0  0  0  0
   15.6667  132.6962   -3.1001 C   0  0  2  0  0  0  0  0  0  0  0  0
   16.8247  131.7707   -3.0435 N   0  0  0  0  0  0  0  0  0  0  0  0
   15.8206  133.7065   -1.9351 C   0  0  0  0  0  0  0  0  0  0  0  0
   14.9664  134.8030   -1.8675 C   0  0  0  0  0  0  0  0  0  0  0  0
   15.0906  135.7186   -0.8278 C   0  0  0  0  0  0  0  0  0  0  0  0
   16.0750  135.5219    0.1345 C   0  0  0  0  0  0  0  0  0  0  0  0
   16.2473  136.6845    1.4714 Cl  0  0  0  0  0  0  0  0  0  0  0  0
   16.9293  134.4266    0.0687 C   0  0  0  0  0  0  0  0  0  0  0  0
   16.8041  133.5117   -0.9714 C   0  0  0  0  0  0  0  0  0  0  0  0
   15.6624  133.3770   -4.4531 C   0  0  0  0  0  0  0  0  0  0  0  0
   14.7444  132.9829   -5.4169 C   0  0  0  0  0  0  0  0  0  0  0  0
   14.7799  133.6377   -6.6407 C   0  0  0  0  0  0  0  0  0  0  0  0
   15.7001  134.6502   -6.8931 C   0  0  0  0  0  0  0  0  0  0  0  0
   16.6032  135.0180   -5.9055 C   0  0  0  0  0  0  0  0  0  0  0  0
   16.5934  134.3814   -4.6697 C   0  0  0  0  0  0  0  0  0  0  0  0
   17.5684  136.0710   -6.1726 C   0  0  0  0  0  0  0  0  0  0  0  0
   18.5364  136.4833   -5.1729 C   0  0  0  0  0  0  0  0  0  0  0  0
   19.7991  135.9000   -5.1641 C   0  0  0  0  0  0  0  0  0  0  0  0
   20.7210  136.3010   -4.2024 C   0  0  0  0  0  0  0  0  0  0  0  0
   20.3945  137.2698   -3.2594 C   0  0  0  0  0  0  0  0  0  0  0  0
   19.1259  137.8396   -3.2873 C   0  0  0  0  0  0  0  0  0  0  0  0
   18.6880  139.0803   -2.0885 Cl  0  0  0  0  0  0  0  0  0  0  0  0
   18.1879  137.4535   -4.2393 C   0  0  0  0  0  0  0  0  0  0  0  0
   17.6188  136.7031   -7.3311 C   0  0  0  0  0  0  0  0  0  0  0  0
   16.6802  136.3355   -8.3736 C   0  0  0  0  0  0  0  0  0  0  0  0
   16.7262  136.9201   -9.4441 O   0  0  0  0  0  0  0  0  0  0  0  0
   15.7481  135.3193   -8.1229 N   0  0  0  0  0  0  0  0  0  0  0  0
   14.8208  134.9820   -9.2159 C   0  0  0  0  0  0  0  0  0  0  0  0
   16.0112  130.2206   -4.0948 H   0  0  0  0  0  0  0  0  0  0  0  0
   15.3010  128.9160   -3.4163 H   0  0  0  0  0  0  0  0  0  0  0  0
   14.8188  129.4355   -4.8875 H   0  0  0  0  0  0  0  0  0  0  0  0
   12.4459  129.3544   -3.2334 H   0  0  0  0  0  0  0  0  0  0  0  0
   13.0097  133.2153   -2.0476 H   0  0  0  0  0  0  0  0  0  0  0  0
   17.6736  132.2942   -3.1176 H   0  0  0  0  0  0  0  0  0  0  0  0
   16.8133  131.2753   -2.1750 H   0  0  0  0  0  0  0  0  0  0  0  0
   14.2632  134.9328   -2.5666 H   0  0  0  0  0  0  0  0  0  0  0  0
   14.4797  136.5085   -0.7730 H   0  0  0  0  0  0  0  0  0  0  0  0
   17.6323  134.2970    0.7680 H   0  0  0  0  0  0  0  0  0  0  0  0
   17.4151  132.7219   -1.0257 H   0  0  0  0  0  0  0  0  0  0  0  0
   14.0827  132.2551   -5.2366 H   0  0  0  0  0  0  0  0  0  0  0  0
   14.1310  133.3762   -7.3553 H   0  0  0  0  0  0  0  0  0  0  0  0
   17.2421  134.6415   -3.9544 H   0  0  0  0  0  0  0  0  0  0  0  0
   20.0406  135.2028   -5.8391 H   0  0  0  0  0  0  0  0  0  0  0  0
   21.6311  135.8869   -4.1889 H   0  0  0  0  0  0  0  0  0  0  0  0
   21.0625  137.5528   -2.5711 H   0  0  0  0  0  0  0  0  0  0  0  0
   17.2776  137.8670   -4.2522 H   0  0  0  0  0  0  0  0  0  0  0  0
   18.2939  137.4242   -7.4870 H   0  0  0  0  0  0  0  0  0  0  0  0
   14.2089  134.2487   -8.9195 H   0  0  0  0  0  0  0  0  0  0  0  0
   14.2818  135.7891   -9.4567 H   0  0  0  0  0  0  0  0  0  0  0  0
   15.3420  134.6791  -10.0138 H   0  0  0  0  0  0  0  0  0  0  0  0
  1  2  1  0  0  0  0
  2  3  1  0  0  0  0
  3  4  2  0  0  0  0
  4  5  1  0  0  0  0
  5  6  2  0  0  0  0
  6  7  1  0  0  0  0
  7  8  1  0  0  0  0
  7  9  1  0  0  0  0
  9 10  2  0  0  0  0
 10 11  1  0  0  0  0
 11 12  2  0  0  0  0
 12 13  1  0  0  0  0
 12 14  1  0  0  0  0
 14 15  2  0  0  0  0
  7 16  1  0  0  0  0
 16 17  2  0  0  0  0
 17 18  1  0  0  0  0
 18 19  2  0  0  0  0
 19 20  1  0  0  0  0
 20 21  2  0  0  0  0
 20 22  1  0  0  0  0
 22 23  1  0  0  0  0
 23 24  2  0  0  0  0
 24 25  1  0  0  0  0
 25 26  2  0  0  0  0
 26 27  1  0  0  0  0
 27 28  1  0  0  0  0
 27 29  2  0  0  0  0
 22 30  2  0  0  0  0
 30 31  1  0  0  0  0
 31 32  2  0  0  0  0
 31 33  1  0  0  0  0
 33 34  1  0  0  0  0
  6  2  1  0  0  0  0
 15  9  1  0  0  0  0
 21 16  1  0  0  0  0
 29 23  1  0  0  0  0
 33 19  1  0  0  0  0
  1 35  1  0  0  0  0
  1 36  1  0  0  0  0
  1 37  1  0  0  0  0
  3 38  1  0  0  0  0
  5 39  1  0  0  0  0
 34 56  1  0  0  0  0
  8 40  1  0  0  0  0
  8 41  1  0  0  0  0
 10 42  1  0  0  0  0
 11 43  1  0  0  0  0
 14 44  1  0  0  0  0
 15 45  1  0  0  0  0
 17 46  1  0  0  0  0
 18 47  1  0  0  0  0
 21 48  1  0  0  0  0
 24 49  1  0  0  0  0
 25 50  1  0  0  0  0
 26 51  1  0  0  0  0
 29 52  1  0  0  0  0
 30 53  1  0  0  0  0
 34 54  1  0  0  0  0
 34 55  1  0  0  0  0
M  END
> <BIOSOLVEIT.HYDE_ESTIMATED_AFFINITY_LOWER_BOUNDARY [nM]>
8826772.559039

> <BIOSOLVEIT.HYDE_ESTIMATED_AFFINITY_UPPER_BOUNDARY [nM]>
876992041.750099

> <BIOSOLVEIT.HYDE_LIGAND_EFFICIENCY range: ++, +, 0, -, -->
--

> <BIOSOLVEIT.HYDE_LIGAND_LIPOPHILIC_EFFICIENCY range: ++, +, 0, -, -->
--

> <BIOSOLVEIT.INTER_CLASH range: red, yellow, green>
green

> <BIOSOLVEIT.INTRA_CLASH range: red, yellow, green>
yellow

> <BIOSOLVEIT.LOGP>
5.3856

> <BIOSOLVEIT.MOLECULAR WEIGHT>
489.404

> <BIOSOLVEIT.MOLECULE_CHECKSUM>
LTYuMDI1Mzg7MC4xNzcyMTc=

> <BIOSOLVEIT.TORSION_QUALITY range: red, yellow, green, not rotatable>
green

> <BIOSOLVEIT.TPSA>
64.15

$$$$
1MZC_BNE_1
foHydescor03192112263D 1   1.00000     0.00000     0
Hydescorer 1.1.0 fol007
 69 72  0  0  0  0            999 V2000
   15.2026  133.5154   -2.5625 C   0  0  0  0  0  0  0  0  0  0  0  0
   16.4634  133.6015   -1.6882 C   0  0  0  0  0  0  0  0  0  0  0  0
   17.4622  132.4624   -1.8246 C   0  0  2  0  0  0  0  0  0  0  0  0
   18.1931  132.2684   -0.5068 C   0  0  0  0  0  0  0  0  0  0  0  0
   19.0110  131.1583   -0.3228 C   0  0  0  0  0  0  0  0  0  0  0  0
   19.6705  131.0009    0.8920 C   0  0  0  0  0  0  0  0  0  0  0  0
   19.5217  131.9325    1.9142 C   0  0  0  0  0  0  0  0  0  0  0  0
   18.6989  133.0351    1.7092 C   0  0  0  0  0  0  0  0  0  0  0  0
   18.5429  133.9795    2.7353 O   0  0  0  0  0  0  0  0  0  0  0  0
   19.5489  134.6964    3.2796 C   0  0  0  0  0  0  0  0  0  0  0  0
   20.5652  134.0206    3.9469 C   0  0  0  0  0  0  0  0  0  0  0  0
   21.6049  134.7529    4.5104 C   0  0  0  0  0  0  0  0  0  0  0  0
   22.7392  134.0127    5.2542 C   0  0  1  0  0  0  0  0  0  0  0  0
   23.7730  135.0860    5.6758 C   0  0  0  0  0  0  0  0  0  0  0  0
   22.2461  133.3270    6.4647 N   0  3  0  0  0  0  0  0  0  0  0  0
   23.3514  132.9539    4.3220 C   0  0  0  0  0  0  0  0  0  0  0  0
   23.3362  131.6054    4.5266 C   0  0  0  0  0  0  0  0  0  0  0  0
   23.9803  131.0358    3.4685 N   0  0  0  0  0  0  0  0  0  0  0  0
   24.3734  131.9901    2.6521 C   0  0  0  0  0  0  0  0  0  0  0  0
   23.9929  133.1979    3.1487 N   0  0  0  0  0  0  0  0  0  0  0  0
   24.2355  134.5149    2.5412 C   0  0  0  0  0  0  0  0  0  0  0  0
   21.6382  136.1404    4.4146 C   0  0  0  0  0  0  0  0  0  0  0  0
   20.6167  136.8055    3.7449 C   0  0  0  0  0  0  0  0  0  0  0  0
   19.5718  136.0834    3.1771 C   0  0  0  0  0  0  0  0  0  0  0  0
   18.4553  136.8102    2.4452 C   0  0  0  0  0  0  0  0  0  0  0  0
   17.6047  137.3629    1.8881 N   0  0  0  0  0  0  0  0  0  0  0  0
   18.0304  133.2121    0.5023 C   0  0  0  0  0  0  0  0  0  0  0  0
   18.5562  132.9444   -2.7845 C   0  0  0  0  0  0  0  0  0  0  0  0
   18.2064  133.1147   -4.2634 C   0  0  0  0  0  0  0  0  0  0  0  0
   17.9835  131.8384   -5.0807 C   0  0  0  0  0  0  0  0  0  0  0  0
   16.7113  131.0255   -4.7969 C   0  0  0  0  0  0  0  0  0  0  0  0
   16.3824  130.5732   -3.4182 N   0  0  0  0  0  0  0  0  0  0  0  0
   15.6184  129.3172   -3.3622 C   0  0  0  0  0  0  0  0  0  0  0  0
   16.6901  131.1686   -2.1597 C   0  0  0  0  0  0  0  0  0  0  0  0
   16.2836  130.5515   -1.1873 O   0  0  0  0  0  0  0  0  0  0  0  0
   14.6227  134.3117   -2.3906 H   0  0  0  0  0  0  0  0  0  0  0  0
   15.4665  133.4972   -3.5269 H   0  0  0  0  0  0  0  0  0  0  0  0
   14.6983  132.6813   -2.3391 H   0  0  0  0  0  0  0  0  0  0  0  0
   16.1691  133.6349   -0.7331 H   0  0  0  0  0  0  0  0  0  0  0  0
   16.9372  134.4508   -1.9209 H   0  0  0  0  0  0  0  0  0  0  0  0
   19.1231  130.4837   -1.0525 H   0  0  0  0  0  0  0  0  0  0  0  0
   20.2606  130.2059    1.0325 H   0  0  0  0  0  0  0  0  0  0  0  0
   19.9997  131.8112    2.7842 H   0  0  0  0  0  0  0  0  0  0  0  0
   20.5486  133.0235    4.0203 H   0  0  0  0  0  0  0  0  0  0  0  0
   24.5284  134.6479    6.1631 H   0  0  0  0  0  0  0  0  0  0  0  0
   24.1248  135.5479    4.8616 H   0  0  0  0  0  0  0  0  0  0  0  0
   23.3333  135.7552    6.2748 H   0  0  0  0  0  0  0  0  0  0  0  0
   22.9750  132.7586    6.8461 H   0  0  0  0  0  0  0  0  0  0  0  0
   21.9648  134.0071    7.1417 H   0  0  0  0  0  0  0  0  0  0  0  0
   21.4643  132.7508    6.2263 H   0  0  0  0  0  0  0  0  0  0  0  0
   22.9300  131.1259    5.3045 H   0  0  0  0  0  0  0  0  0  0  0  0
   24.8746  131.8490    1.7983 H   0  0  0  0  0  0  0  0  0  0  0  0
   23.8453  135.2277    3.1238 H   0  0  0  0  0  0  0  0  0  0  0  0
   25.2201  134.6626    2.4478 H   0  0  0  0  0  0  0  0  0  0  0  0
   23.8061  134.5498    1.6387 H   0  0  0  0  0  0  0  0  0  0  0  0
   22.3910  136.6556    4.8241 H   0  0  0  0  0  0  0  0  0  0  0  0
   20.6333  137.8026    3.6715 H   0  0  0  0  0  0  0  0  0  0  0  0
   17.4405  134.0072    0.3619 H   0  0  0  0  0  0  0  0  0  0  0  0
   19.3060  132.2847   -2.7325 H   0  0  0  0  0  0  0  0  0  0  0  0
   18.8706  133.8333   -2.4513 H   0  0  0  0  0  0  0  0  0  0  0  0
   18.9543  133.6205   -4.6933 H   0  0  0  0  0  0  0  0  0  0  0  0
   17.3664  133.6549   -4.3138 H   0  0  0  0  0  0  0  0  0  0  0  0
   18.7655  131.2373   -4.9161 H   0  0  0  0  0  0  0  0  0  0  0  0
   17.9619  132.1008   -6.0454 H   0  0  0  0  0  0  0  0  0  0  0  0
   16.7691  130.2013   -5.3603 H   0  0  0  0  0  0  0  0  0  0  0  0
   15.9417  131.5856   -5.1035 H   0  0  0  0  0  0  0  0  0  0  0  0
   15.4367  129.0799   -2.4079 H   0  0  0  0  0  0  0  0  0  0  0  0
   14.7519  129.4323   -3.8479 H   0  0  0  0  0  0  0  0  0  0  0  0
   16.1473  128.5858   -3.7927 H   0  0  0  0  0  0  0  0  0  0  0  0
  1  2  1  0  0  0  0
  2  3  1  0  0  0  0
  3  4  1  0  0  0  0
  4  5  2  0  0  0  0
  5  6  1  0  0  0  0
  6  7  2  0  0  0  0
  7  8  1  0  0  0  0
  8  9  1  0  0  0  0
  9 10  1  0  0  0  0
 10 11  2  0  0  0  0
 11 12  1  0  0  0  0
 12 13  1  0  0  0  0
 13 14  1  0  0  0  0
 13 15  1  0  0  0  0
 13 16  1  0  0  0  0
 16 17  2  0  0  0  0
 17 18  1  0  0  0  0
 18 19  2  0  0  0  0
 19 20  1  0  0  0  0
 20 21  1  0  0  0  0
 12 22  2  0  0  0  0
 22 23  1  0  0  0  0
 23 24  2  0  0  0  0
 24 25  1  0  0  0  0
 25 26  3  0  0  0  0
  8 27  2  0  0  0  0
  3 28  1  0  0  0  0
 28 29  1  0  0  0  0
 29 30  1  0  0  0  0
 30 31  1  0  0  0  0
 31 32  1  0  0  0  0
 32 33  1  0  0  0  0
 32 34  1  0  0  0  0
 34 35  2  0  0  0  0
 34  3  1  0  0  0  0
 27  4  1  0  0  0  0
 24 10  1  0  0  0  0
 20 16  1  0  0  0  0
  1 36  1  0  0  0  0
  1 37  1  0  0  0  0
  1 38  1  0  0  0  0
  2 39  1  0  0  0  0
  2 40  1  0  0  0  0
  5 41  1  0  0  0  0
  6 42  1  0  0  0  0
  7 43  1  0  0  0  0
 11 44  1  0  0  0  0
 14 45  1  0  0  0  0
 14 46  1  0  0  0  0
 14 47  1  0  0  0  0
 15 48  1  0  0  0  0
 15 49  1  0  0  0  0
 15 50  1  0  0  0  0
 17 51  1  0  0  0  0
 19 52  1  0  0  0  0
 21 53  1  0  0  0  0
 21 54  1  0  0  0  0
 21 55  1  0  0  0  0
 22 56  1  0  0  0  0
 23 57  1  0  0  0  0
 27 58  1  0  0  0  0
 28 59  1  0  0  0  0
 28 60  1  0  0  0  0
 29 61  1  0  0  0  0
 29 62  1  0  0  0  0
 30 63  1  0  0  0  0
 30 64  1  0  0  0  0
 31 65  1  0  0  0  0
 31 66  1  0  0  0  0
 33 67  1  0  0  0  0
 33 68  1  0  0  0  0
 33 69  1  0  0  0  0
M  CHG  1  15   1
M  END
> <BIOSOLVEIT.HYDE_ESTIMATED_AFFINITY_LOWER_BOUNDARY [nM]>
956240808.164731

> <BIOSOLVEIT.HYDE_ESTIMATED_AFFINITY_UPPER_BOUNDARY [nM]>
95008178034.267761

> <BIOSOLVEIT.HYDE_LIGAND_EFFICIENCY range: ++, +, 0, -, -->
--

> <BIOSOLVEIT.HYDE_LIGAND_LIPOPHILIC_EFFICIENCY range: ++, +, 0, -, -->
--

> <BIOSOLVEIT.INTER_CLASH range: red, yellow, green>
green

> <BIOSOLVEIT.INTRA_CLASH range: red, yellow, green>
green

> <BIOSOLVEIT.LOGP>
3.87958

> <BIOSOLVEIT.MOLECULAR WEIGHT>
472.61

> <BIOSOLVEIT.MOLECULE_CHECKSUM>
NS41ODkwODsw

> <BIOSOLVEIT.TORSION_QUALITY range: red, yellow, green, not rotatable>
green

> <BIOSOLVEIT.TPSA>
98.79

$$$$
1MZC_BNE_2
foHydescor03192112263D 1   1.00000     0.00000     0
Hydescorer 1.1.0 fol007
 69 72  0  0  0  0            999 V2000
   15.0050  135.1074   -2.4221 C   0  0  0  0  0  0  0  0  0  0  0  0
   15.8314  134.4002   -1.3364 C   0  0  0  0  0  0  0  0  0  0  0  0
   17.3054  134.1835   -1.6402 C   0  0  2  0  0  0  0  0  0  0  0  0
   17.9375  133.6640   -0.3597 C   0  0  0  0  0  0  0  0  0  0  0  0
   18.4962  132.3903   -0.3278 C   0  0  0  0  0  0  0  0  0  0  0  0
   19.0694  131.9353    0.8553 C   0  0  0  0  0  0  0  0  0  0  0  0
   19.0890  132.7324    1.9950 C   0  0  0  0  0  0  0  0  0  0  0  0
   18.5247  134.0026    1.9412 C   0  0  0  0  0  0  0  0  0  0  0  0
   18.5399  134.8131    3.0866 O   0  0  0  0  0  0  0  0  0  0  0  0
   19.6514  135.3484    3.6348 C   0  0  0  0  0  0  0  0  0  0  0  0
   20.5978  134.4953    4.1927 C   0  0  0  0  0  0  0  0  0  0  0  0
   21.7454  135.0398    4.7596 C   0  0  0  0  0  0  0  0  0  0  0  0
   22.8035  134.1017    5.3825 C   0  0  1  0  0  0  0  0  0  0  0  0
   24.0071  134.9892    5.7850 C   0  0  0  0  0  0  0  0  0  0  0  0
   22.2917  133.4202    6.5876 N   0  3  0  0  0  0  0  0  0  0  0  0
   23.1953  133.0257    4.3560 C   0  0  0  0  0  0  0  0  0  0  0  0
   22.9631  131.6868    4.4748 C   0  0  0  0  0  0  0  0  0  0  0  0
   23.4633  131.0958    3.3526 N   0  0  0  0  0  0  0  0  0  0  0  0
   23.9793  132.0282    2.5806 C   0  0  0  0  0  0  0  0  0  0  0  0
   23.8243  133.2437    3.1709 N   0  0  0  0  0  0  0  0  0  0  0  0
   24.2603  134.5429    2.6375 C   0  0  0  0  0  0  0  0  0  0  0  0
   21.9541  136.4152    4.7741 C   0  0  0  0  0  0  0  0  0  0  0  0
   21.0008  137.2586    4.2132 C   0  0  0  0  0  0  0  0  0  0  0  0
   19.8494  136.7252    3.6432 C   0  0  0  0  0  0  0  0  0  0  0  0
   18.8076  137.6468    3.0302 C   0  0  0  0  0  0  0  0  0  0  0  0
   18.0139  138.3479    2.5636 N   0  0  0  0  0  0  0  0  0  0  0  0
   17.9466  134.4776    0.7687 C   0  0  0  0  0  0  0  0  0  0  0  0
   17.8349  135.5753   -2.0061 C   0  0  0  0  0  0  0  0  0  0  0  0
   19.3339  135.7679   -2.2623 C   0  0  0  0  0  0  0  0  0  0  0  0
   20.2011  134.5516   -2.6007 C   0  0  0  0  0  0  0  0  0  0  0  0
   19.7427  133.6271   -3.7308 C   0  0  0  0  0  0  0  0  0  0  0  0
   18.4893  132.8436   -3.6085 N   0  0  0  0  0  0  0  0  0  0  0  0
   18.3374  131.7024   -4.5239 C   0  0  0  0  0  0  0  0  0  0  0  0
   17.4229  133.0720   -2.6970 C   0  0  0  0  0  0  0  0  0  0  0  0
   16.4870  132.2876   -2.7634 O   0  0  0  0  0  0  0  0  0  0  0  0
   14.0573  135.1948   -2.1155 H   0  0  0  0  0  0  0  0  0  0  0  0
   15.3857  136.0164   -2.5916 H   0  0  0  0  0  0  0  0  0  0  0  0
   15.0343  134.5710   -3.2656 H   0  0  0  0  0  0  0  0  0  0  0  0
   15.4190  133.5033   -1.1765 H   0  0  0  0  0  0  0  0  0  0  0  0
   15.7704  134.9487   -0.5025 H   0  0  0  0  0  0  0  0  0  0  0  0
   18.4859  131.8108   -1.1428 H   0  0  0  0  0  0  0  0  0  0  0  0
   19.4734  131.0211    0.8868 H   0  0  0  0  0  0  0  0  0  0  0  0
   19.5032  132.3969    2.8412 H   0  0  0  0  0  0  0  0  0  0  0  0
   20.4553  133.5056    4.1864 H   0  0  0  0  0  0  0  0  0  0  0  0
   24.7193  134.4191    6.1947 H   0  0  0  0  0  0  0  0  0  0  0  0
   24.3713  135.4453    4.9730 H   0  0  0  0  0  0  0  0  0  0  0  0
   23.7080  135.6761    6.4473 H   0  0  0  0  0  0  0  0  0  0  0  0
   22.9893  132.7956    6.9388 H   0  0  0  0  0  0  0  0  0  0  0  0
   22.0708  134.1003    7.2866 H   0  0  0  0  0  0  0  0  0  0  0  0
   21.4685  132.9030    6.3537 H   0  0  0  0  0  0  0  0  0  0  0  0
   22.5119  131.2264    5.2394 H   0  0  0  0  0  0  0  0  0  0  0  0
   24.4178  131.8678    1.6963 H   0  0  0  0  0  0  0  0  0  0  0  0
   24.0164  135.2670    3.2826 H   0  0  0  0  0  0  0  0  0  0  0  0
   25.2516  134.5335    2.5061 H   0  0  0  0  0  0  0  0  0  0  0  0
   23.8095  134.7116    1.7609 H   0  0  0  0  0  0  0  0  0  0  0  0
   22.7832  136.7947    5.1846 H   0  0  0  0  0  0  0  0  0  0  0  0
   21.1432  138.2483    4.2196 H   0  0  0  0  0  0  0  0  0  0  0  0
   17.5428  135.3918    0.7372 H   0  0  0  0  0  0  0  0  0  0  0  0
   17.5869  136.1877   -1.2554 H   0  0  0  0  0  0  0  0  0  0  0  0
   17.3586  135.8584   -2.8385 H   0  0  0  0  0  0  0  0  0  0  0  0
   19.7199  136.1803   -1.4371 H   0  0  0  0  0  0  0  0  0  0  0  0
   19.4190  136.4079   -3.0259 H   0  0  0  0  0  0  0  0  0  0  0  0
   20.2683  133.9959   -1.7721 H   0  0  0  0  0  0  0  0  0  0  0  0
   21.1079  134.8936   -2.8471 H   0  0  0  0  0  0  0  0  0  0  0  0
   20.4793  132.9665   -3.8755 H   0  0  0  0  0  0  0  0  0  0  0  0
   19.6433  134.1992   -4.5450 H   0  0  0  0  0  0  0  0  0  0  0  0
   17.4614  131.2517   -4.3522 H   0  0  0  0  0  0  0  0  0  0  0  0
   18.3655  132.0273   -5.4692 H   0  0  0  0  0  0  0  0  0  0  0  0
   19.0820  131.0523   -4.3726 H   0  0  0  0  0  0  0  0  0  0  0  0
  1  2  1  0  0  0  0
  2  3  1  0  0  0  0
  3  4  1  0  0  0  0
  4  5  2  0  0  0  0
  5  6  1  0  0  0  0
  6  7  2  0  0  0  0
  7  8  1  0  0  0  0
  8  9  1  0  0  0  0
  9 10  1  0  0  0  0
 10 11  2  0  0  0  0
 11 12  1  0  0  0  0
 12 13  1  0  0  0  0
 13 14  1  0  0  0  0
 13 15  1  0  0  0  0
 13 16  1  0  0  0  0
 16 17  2  0  0  0  0
 17 18  1  0  0  0  0
 18 19  2  0  0  0  0
 19 20  1  0  0  0  0
 20 21  1  0  0  0  0
 12 22  2  0  0  0  0
 22 23  1  0  0  0  0
 23 24  2  0  0  0  0
 24 25  1  0  0  0  0
 25 26  3  0  0  0  0
  8 27  2  0  0  0  0
  3 28  1  0  0  0  0
 28 29  1  0  0  0  0
 29 30  1  0  0  0  0
 30 31  1  0  0  0  0
 31 32  1  0  0  0  0
 32 33  1  0  0  0  0
 32 34  1  0  0  0  0
 34 35  2  0  0  0  0
 34  3  1  0  0  0  0
 27  4  1  0  0  0  0
 24 10  1  0  0  0  0
 20 16  1  0  0  0  0
  1 36  1  0  0  0  0
  1 37  1  0  0  0  0
  1 38  1  0  0  0  0
  2 39  1  0  0  0  0
  2 40  1  0  0  0  0
  5 41  1  0  0  0  0
  6 42  1  0  0  0  0
  7 43  1  0  0  0  0
 11 44  1  0  0  0  0
 14 45  1  0  0  0  0
 14 46  1  0  0  0  0
 14 47  1  0  0  0  0
 15 48  1  0  0  0  0
 15 49  1  0  0  0  0
 15 50  1  0  0  0  0
 17 51  1  0  0  0  0
 19 52  1  0  0  0  0
 21 53  1  0  0  0  0
 21 54  1  0  0  0  0
 21 55  1  0  0  0  0
 22 56  1  0  0  0  0
 23 57  1  0  0  0  0
 27 58  1  0  0  0  0
 28 59  1  0  0  0  0
 28 60  1  0  0  0  0
 29 61  1  0  0  0  0
 29 62  1  0  0  0  0
 30 63  1  0  0  0  0
 30 64  1  0  0  0  0
 31 65  1  0  0  0  0
 31 66  1  0  0  0  0
 33 67  1  0  0  0  0
 33 68  1  0  0  0  0
 33 69  1  0  0  0  0
M  CHG  1  15   1
M  END
> <BIOSOLVEIT.HYDE_ESTIMATED_AFFINITY_LOWER_BOUNDARY [nM]>
18039916.558715

> <BIOSOLVEIT.HYDE_ESTIMATED_AFFINITY_UPPER_BOUNDARY [nM]>
1792372370.536266

> <BIOSOLVEIT.HYDE_LIGAND_EFFICIENCY range: ++, +, 0, -, -->
--

> <BIOSOLVEIT.HYDE_LIGAND_LIPOPHILIC_EFFICIENCY range: ++, +, 0, -, -->
--

> <BIOSOLVEIT.INTER_CLASH range: red, yellow, green>
green

> <BIOSOLVEIT.INTRA_CLASH range: red, yellow, green>
green

> <BIOSOLVEIT.LOGP>
3.87958

> <BIOSOLVEIT.MOLECULAR WEIGHT>
472.61

> <BIOSOLVEIT.MOLECULE_CHECKSUM>
LTQuMjUzNDM7MC4xMjE1Mjc=

> <BIOSOLVEIT.TORSION_QUALITY range: red, yellow, green, not rotatable>
green

> <BIOSOLVEIT.TPSA>
98.79

$$$$
1MZC_BNE_3
foHydescor03192112263D 1   1.00000     0.00000     0
Hydescorer 1.1.0 fol007
 69 72  0  0  0  0            999 V2000
   15.3766  136.0425   -2.1670 C   0  0  0  0  0  0  0  0  0  0  0  0
   16.7026  135.7705   -1.4394 C   0  0  0  0  0  0  0  0  0  0  0  0
   17.4370  134.4948   -1.8230 C   0  0  2  0  0  0  0  0  0  0  0  0
   18.0153  133.8482   -0.5754 C   0  0  0  0  0  0  0  0  0  0  0  0
   18.5913  132.5843   -0.6514 C   0  0  0  0  0  0  0  0  0  0  0  0
   19.1144  132.0116    0.5035 C   0  0  0  0  0  0  0  0  0  0  0  0
   19.0677  132.6827    1.7209 C   0  0  0  0  0  0  0  0  0  0  0  0
   18.4870  133.9456    1.7744 C   0  0  0  0  0  0  0  0  0  0  0  0
   18.4353  134.6295    2.9987 O   0  0  0  0  0  0  0  0  0  0  0  0
   19.4937  135.2165    3.5965 C   0  0  0  0  0  0  0  0  0  0  0  0
   20.4968  134.4084    4.1216 C   0  0  0  0  0  0  0  0  0  0  0  0
   21.5902  135.0063    4.7394 C   0  0  0  0  0  0  0  0  0  0  0  0
   22.7103  134.1185    5.3264 C   0  0  1  0  0  0  0  0  0  0  0  0
   23.8867  135.0600    5.6842 C   0  0  0  0  0  0  0  0  0  0  0  0
   22.2723  133.4194    6.5504 N   0  3  0  0  0  0  0  0  0  0  0  0
   23.1132  133.0570    4.2891 C   0  0  0  0  0  0  0  0  0  0  0  0
   22.9473  131.7095    4.4199 C   0  0  0  0  0  0  0  0  0  0  0  0
   23.4325  131.1372    3.2814 N   0  0  0  0  0  0  0  0  0  0  0  0
   23.8763  132.0889    2.4884 C   0  0  0  0  0  0  0  0  0  0  0  0
   23.6875  133.2987    3.0809 N   0  0  0  0  0  0  0  0  0  0  0  0
   24.0433  134.6141    2.5283 C   0  0  0  0  0  0  0  0  0  0  0  0
   21.6898  136.3905    4.8366 C   0  0  0  0  0  0  0  0  0  0  0  0
   20.6808  137.1887    4.3079 C   0  0  0  0  0  0  0  0  0  0  0  0
   19.5826  136.6017    3.6876 C   0  0  0  0  0  0  0  0  0  0  0  0
   18.4799  137.4738    3.1098 C   0  0  0  0  0  0  0  0  0  0  0  0
   17.6399  138.1372    2.6699 N   0  0  0  0  0  0  0  0  0  0  0  0
   17.9581  134.5369    0.6320 C   0  0  0  0  0  0  0  0  0  0  0  0
   18.6734  134.9185   -2.6243 C   0  0  0  0  0  0  0  0  0  0  0  0
   18.4723  135.4923   -4.0276 C   0  0  0  0  0  0  0  0  0  0  0  0
   18.0344  134.5177   -5.1252 C   0  0  0  0  0  0  0  0  0  0  0  0
   16.5994  133.9730   -5.0617 C   0  0  0  0  0  0  0  0  0  0  0  0
   16.0855  133.3091   -3.8334 N   0  0  0  0  0  0  0  0  0  0  0  0
   15.0648  132.2804   -4.0866 C   0  0  0  0  0  0  0  0  0  0  0  0
   16.4273  133.5201   -2.4654 C   0  0  0  0  0  0  0  0  0  0  0  0
   15.8301  132.8091   -1.6718 O   0  0  0  0  0  0  0  0  0  0  0  0
   14.9855  136.9017   -1.8370 H   0  0  0  0  0  0  0  0  0  0  0  0
   15.5436  136.1084   -3.1508 H   0  0  0  0  0  0  0  0  0  0  0  0
   14.7380  135.2946   -1.9866 H   0  0  0  0  0  0  0  0  0  0  0  0
   16.5082  135.7264   -0.4595 H   0  0  0  0  0  0  0  0  0  0  0  0
   17.3138  136.5402   -1.6237 H   0  0  0  0  0  0  0  0  0  0  0  0
   18.6288  132.0950   -1.5228 H   0  0  0  0  0  0  0  0  0  0  0  0
   19.5305  131.1033    0.4577 H   0  0  0  0  0  0  0  0  0  0  0  0
   19.4461  132.2632    2.5459 H   0  0  0  0  0  0  0  0  0  0  0  0
   20.4327  133.4126    4.0559 H   0  0  0  0  0  0  0  0  0  0  0  0
   24.6375  134.5236    6.0696 H   0  0  0  0  0  0  0  0  0  0  0  0
   24.2013  135.5289    4.8589 H   0  0  0  0  0  0  0  0  0  0  0  0
   23.5808  135.7354    6.3552 H   0  0  0  0  0  0  0  0  0  0  0  0
   23.0033  132.8164    6.8696 H   0  0  0  0  0  0  0  0  0  0  0  0
   22.0604  134.0911    7.2602 H   0  0  0  0  0  0  0  0  0  0  0  0
   21.4562  132.8770    6.3505 H   0  0  0  0  0  0  0  0  0  0  0  0
   22.5463  131.2322    5.2018 H   0  0  0  0  0  0  0  0  0  0  0  0
   24.2888  131.9450    1.5889 H   0  0  0  0  0  0  0  0  0  0  0  0
   23.7902  135.3290    3.1801 H   0  0  0  0  0  0  0  0  0  0  0  0
   25.0284  134.6497    2.3603 H   0  0  0  0  0  0  0  0  0  0  0  0
   23.5531  134.7582    1.6687 H   0  0  0  0  0  0  0  0  0  0  0  0
   22.4808  136.8085    5.2832 H   0  0  0  0  0  0  0  0  0  0  0  0
   20.7448  138.1845    4.3736 H   0  0  0  0  0  0  0  0  0  0  0  0
   17.5422  135.4452    0.6778 H   0  0  0  0  0  0  0  0  0  0  0  0
   19.2565  134.1113   -2.7162 H   0  0  0  0  0  0  0  0  0  0  0  0
   19.1496  135.6142   -2.0865 H   0  0  0  0  0  0  0  0  0  0  0  0
   19.3402  135.8981   -4.3140 H   0  0  0  0  0  0  0  0  0  0  0  0
   17.7753  136.2065   -3.9637 H   0  0  0  0  0  0  0  0  0  0  0  0
   18.6538  133.7333   -5.0934 H   0  0  0  0  0  0  0  0  0  0  0  0
   18.1373  134.9883   -6.0016 H   0  0  0  0  0  0  0  0  0  0  0  0
   16.5156  133.3058   -5.8018 H   0  0  0  0  0  0  0  0  0  0  0  0
   15.9930  134.7477   -5.2410 H   0  0  0  0  0  0  0  0  0  0  0  0
   14.7702  131.8823   -3.2179 H   0  0  0  0  0  0  0  0  0  0  0  0
   14.2797  132.6958   -4.5461 H   0  0  0  0  0  0  0  0  0  0  0  0
   15.4506  131.5640   -4.6679 H   0  0  0  0  0  0  0  0  0  0  0  0
  1  2  1  0  0  0  0
  2  3  1  0  0  0  0
  3  4  1  0  0  0  0
  4  5  2  0  0  0  0
  5  6  1  0  0  0  0
  6  7  2  0  0  0  0
  7  8  1  0  0  0  0
  8  9  1  0  0  0  0
  9 10  1  0  0  0  0
 10 11  2  0  0  0  0
 11 12  1  0  0  0  0
 12 13  1  0  0  0  0
 13 14  1  0  0  0  0
 13 15  1  0  0  0  0
 13 16  1  0  0  0  0
 16 17  2  0  0  0  0
 17 18  1  0  0  0  0
 18 19  2  0  0  0  0
 19 20  1  0  0  0  0
 20 21  1  0  0  0  0
 12 22  2  0  0  0  0
 22 23  1  0  0  0  0
 23 24  2  0  0  0  0
 24 25  1  0  0  0  0
 25 26  3  0  0  0  0
  8 27  2  0  0  0  0
  3 28  1  0  0  0  0
 28 29  1  0  0  0  0
 29 30  1  0  0  0  0
 30 31  1  0  0  0  0
 31 32  1  0  0  0  0
 32 33  1  0  0  0  0
 32 34  1  0  0  0  0
 34 35  2  0  0  0  0
 34  3  1  0  0  0  0
 27  4  1  0  0  0  0
 24 10  1  0  0  0  0
 20 16  1  0  0  0  0
  1 36  1  0  0  0  0
  1 37  1  0  0  0  0
  1 38  1  0  0  0  0
  2 39  1  0  0  0  0
  2 40  1  0  0  0  0
  5 41  1  0  0  0  0
  6 42  1  0  0  0  0
  7 43  1  0  0  0  0
 11 44  1  0  0  0  0
 14 45  1  0  0  0  0
 14 46  1  0  0  0  0
 14 47  1  0  0  0  0
 15 48  1  0  0  0  0
 15 49  1  0  0  0  0
 15 50  1  0  0  0  0
 17 51  1  0  0  0  0
 19 52  1  0  0  0  0
 21 53  1  0  0  0  0
 21 54  1  0  0  0  0
 21 55  1  0  0  0  0
 22 56  1  0  0  0  0
 23 57  1  0  0  0  0
 27 58  1  0  0  0  0
 28 59  1  0  0  0  0
 28 60  1  0  0  0  0
 29 61  1  0  0  0  0
 29 62  1  0  0  0  0
 30 63  1  0  0  0  0
 30 64  1  0  0  0  0
 31 65  1  0  0  0  0
 31 66  1  0  0  0  0
 33 67  1  0  0  0  0
 33 68  1  0  0  0  0
 33 69  1  0  0  0  0
M  CHG  1  15   1
M  END
> <BIOSOLVEIT.HYDE_ESTIMATED_AFFINITY_LOWER_BOUNDARY [nM]>
133567815.358292

> <BIOSOLVEIT.HYDE_ESTIMATED_AFFINITY_UPPER_BOUNDARY [nM]>
13270752171.269722

> <BIOSOLVEIT.HYDE_LIGAND_EFFICIENCY range: ++, +, 0, -, -->
--

> <BIOSOLVEIT.HYDE_LIGAND_LIPOPHILIC_EFFICIENCY range: ++, +, 0, -, -->
--

> <BIOSOLVEIT.INTER_CLASH range: red, yellow, green>
green

> <BIOSOLVEIT.INTRA_CLASH range: red, yellow, green>
green

> <BIOSOLVEIT.LOGP>
3.87958

> <BIOSOLVEIT.MOLECULAR WEIGHT>
472.61

> <BIOSOLVEIT.MOLECULE_CHECKSUM>
MC43MDk0OTg7MA==

> <BIOSOLVEIT.TORSION_QUALITY range: red, yellow, green, not rotatable>
green

> <BIOSOLVEIT.TPSA>
98.79

$$$$
1LD7_U66_1
foHydescor03192112263D 1   1.00000     0.00000     0
Hydescorer 1.1.0 fol007
 62 67  0  0  0  0            999 V2000
   13.8781  132.9781   -2.8600 N   0  0  0  0  0  0  0  0  0  0  0  0
   13.9463  133.9890   -3.4192 C   0  0  0  0  0  0  0  0  0  0  0  0
   14.0333  135.2789   -4.1323 C   0  0  2  0  0  0  0  0  0  0  0  0
   14.3601  135.0520   -5.6203 C   0  0  0  0  0  0  0  0  0  0  0  0
   15.8365  134.9334   -5.9214 C   0  0  0  0  0  0  0  0  0  0  0  0
   16.8008  135.3582   -5.0746 C   0  0  0  0  0  0  0  0  0  0  0  0
   16.4768  135.6238   -3.6203 C   0  0  0  0  0  0  0  0  0  0  0  0
   15.0632  136.2233   -3.4793 C   0  0  2  0  0  0  0  0  0  0  0  0
   14.7011  136.4295   -2.1096 O   0  0  0  0  0  0  0  0  0  0  0  0
   14.9661  137.5941   -1.3725 C   0  0  0  0  0  0  0  0  0  0  0  0
   14.1135  137.9229   -0.3127 C   0  0  0  0  0  0  0  0  0  0  0  0
   14.3053  139.1006    0.4163 C   0  0  0  0  0  0  0  0  0  0  0  0
   15.3993  139.9330    0.1369 C   0  0  0  0  0  0  0  0  0  0  0  0
   15.6034  141.1165    0.8614 C   0  0  0  0  0  0  0  0  0  0  0  0
   16.7212  141.9134    0.6022 C   0  0  0  0  0  0  0  0  0  0  0  0
   17.6652  141.5154   -0.3478 C   0  0  0  0  0  0  0  0  0  0  0  0
   17.4834  140.3306   -1.0762 C   0  0  0  0  0  0  0  0  0  0  0  0
   16.3170  139.5643   -0.8751 C   0  0  0  0  0  0  0  0  0  0  0  0
   16.0526  138.4338   -1.6631 C   0  0  0  0  0  0  0  0  0  0  0  0
   18.5637  139.8116   -1.8672 N   0  0  0  0  0  0  0  0  0  0  0  0
   19.4390  138.7583   -1.3709 C   0  0  0  0  0  0  0  0  0  0  0  0
   20.6217  138.6788   -2.3523 C   0  0  0  0  0  0  0  0  0  0  0  0
   20.5788  139.9885   -3.1733 C   0  0  1  0  0  0  0  0  0  0  0  0
   20.9155  139.8784   -4.6153 N   0  3  0  0  0  0  0  0  0  0  0  0
   20.3903  138.7339   -5.3900 C   0  0  0  0  0  0  0  0  0  0  0  0
   18.8538  138.6363   -5.4085 C   0  0  0  0  0  0  0  0  0  0  0  0
   18.4122  137.8334   -6.6031 C   0  0  0  0  0  0  0  0  0  0  0  0
   18.3207  138.3333   -7.8853 C   0  0  0  0  0  0  0  0  0  0  0  0
   18.1160  137.3212   -8.7502 N   0  0  0  0  0  0  0  0  0  0  0  0
   18.0945  136.2174   -7.9752 C   0  0  0  0  0  0  0  0  0  0  0  0
   18.2790  136.4913   -6.6661 N   0  0  0  0  0  0  0  0  0  0  0  0
   18.2238  135.5154   -5.5718 C   0  0  0  0  0  0  0  0  0  0  0  0
   19.2192  140.5174   -2.9025 C   0  0  0  0  0  0  0  0  0  0  0  0
   18.7324  141.5425   -3.4510 O   0  0  0  0  0  0  0  0  0  0  0  0
   13.1371  135.7193   -4.0792 H   0  0  0  0  0  0  0  0  0  0  0  0
   13.9948  135.8228   -6.1423 H   0  0  0  0  0  0  0  0  0  0  0  0
   13.9117  134.2079   -5.9143 H   0  0  0  0  0  0  0  0  0  0  0  0
   16.1134  134.5207   -6.7891 H   0  0  0  0  0  0  0  0  0  0  0  0
   17.1452  136.2671   -3.2469 H   0  0  0  0  0  0  0  0  0  0  0  0
   16.5214  134.7641   -3.1115 H   0  0  0  0  0  0  0  0  0  0  0  0
   15.0385  137.1031   -3.9541 H   0  0  0  0  0  0  0  0  0  0  0  0
   13.3602  137.3100   -0.0744 H   0  0  0  0  0  0  0  0  0  0  0  0
   13.6607  139.3502    1.1390 H   0  0  0  0  0  0  0  0  0  0  0  0
   14.9475  141.3904    1.5649 H   0  0  0  0  0  0  0  0  0  0  0  0
   16.8462  142.7723    1.0987 H   0  0  0  0  0  0  0  0  0  0  0  0
   18.4754  142.0788   -0.5095 H   0  0  0  0  0  0  0  0  0  0  0  0
   16.6452  138.2239   -2.4409 H   0  0  0  0  0  0  0  0  0  0  0  0
   18.9508  137.8860   -1.3460 H   0  0  0  0  0  0  0  0  0  0  0  0
   19.7656  138.9838   -0.4530 H   0  0  0  0  0  0  0  0  0  0  0  0
   20.5213  137.8870   -2.9547 H   0  0  0  0  0  0  0  0  0  0  0  0
   21.4848  138.6098   -1.8521 H   0  0  0  0  0  0  0  0  0  0  0  0
   21.2337  140.6217   -2.7607 H   0  0  0  0  0  0  0  0  0  0  0  0
   21.9128  139.8436   -4.6812 H   0  0  0  0  0  0  0  0  0  0  0  0
   20.5810  140.7100   -5.0584 H   0  0  0  0  0  0  0  0  0  0  0  0
   20.7533  137.8920   -4.9907 H   0  0  0  0  0  0  0  0  0  0  0  0
   20.7104  138.8205   -6.3334 H   0  0  0  0  0  0  0  0  0  0  0  0
   18.4627  139.5550   -5.4622 H   0  0  0  0  0  0  0  0  0  0  0  0
   18.5389  138.1884   -4.5718 H   0  0  0  0  0  0  0  0  0  0  0  0
   18.3949  139.2989   -8.1346 H   0  0  0  0  0  0  0  0  0  0  0  0
   17.9565  135.2937   -8.3325 H   0  0  0  0  0  0  0  0  0  0  0  0
   18.8026  135.8307   -4.8198 H   0  0  0  0  0  0  0  0  0  0  0  0
   18.5571  134.6319   -5.9012 H   0  0  0  0  0  0  0  0  0  0  0  0
  1  2  3  0  0  0  0
  2  3  1  0  0  0  0
  3  4  1  0  0  0  0
  4  5  1  0  0  0  0
  5  6  2  0  0  0  0
  6  7  1  0  0  0  0
  7  8  1  0  0  0  0
  8  9  1  0  0  0  0
  9 10  1  0  0  0  0
 10 11  2  0  0  0  0
 11 12  1  0  0  0  0
 12 13  2  0  0  0  0
 13 14  1  0  0  0  0
 14 15  2  0  0  0  0
 15 16  1  0  0  0  0
 16 17  2  0  0  0  0
 17 18  1  0  0  0  0
 18 19  2  0  0  0  0
 17 20  1  0  0  0  0
 20 21  1  0  0  0  0
 21 22  1  0  0  0  0
 22 23  1  0  0  0  0
 23 24  1  0  0  0  0
 24 25  1  0  0  0  0
 25 26  1  0  0  0  0
 26 27  1  0  0  0  0
 27 28  2  0  0  0  0
 28 29  1  0  0  0  0
 29 30  2  0  0  0  0
 30 31  1  0  0  0  0
 31 32  1  0  0  0  0
 23 33  1  0  0  0  0
 33 34  2  0  0  0  0
  8  3  1  0  0  0  0
 19 10  1  0  0  0  0
 33 20  1  0  0  0  0
 32  6  1  0  0  0  0
 18 13  1  0  0  0  0
 31 27  1  0  0  0  0
  3 35  1  0  0  0  0
  4 36  1  0  0  0  0
  4 37  1  0  0  0  0
  5 38  1  0  0  0  0
  7 39  1  0  0  0  0
  7 40  1  0  0  0  0
  8 41  1  0  0  0  0
 11 42  1  0  0  0  0
 12 43  1  0  0  0  0
 14 44  1  0  0  0  0
 15 45  1  0  0  0  0
 16 46  1  0  0  0  0
 19 47  1  0  0  0  0
 21 48  1  0  0  0  0
 21 49  1  0  0  0  0
 22 50  1  0  0  0  0
 22 51  1  0  0  0  0
 23 52  1  0  0  0  0
 24 53  1  0  0  0  0
 24 54  1  0  0  0  0
 25 55  1  0  0  0  0
 25 56  1  0  0  0  0
 26 57  1  0  0  0  0
 26 58  1  0  0  0  0
 28 59  1  0  0  0  0
 30 60  1  0  0  0  0
 32 61  1  0  0  0  0
 32 62  1  0  0  0  0
M  CHG  1  24   1
M  END
> <BIOSOLVEIT.HYDE_ESTIMATED_AFFINITY_LOWER_BOUNDARY [nM]>
87316713.706749

> <BIOSOLVEIT.HYDE_ESTIMATED_AFFINITY_UPPER_BOUNDARY [nM]>
8675431764.034143

> <BIOSOLVEIT.HYDE_LIGAND_EFFICIENCY range: ++, +, 0, -, -->
--

> <BIOSOLVEIT.HYDE_LIGAND_LIPOPHILIC_EFFICIENCY range: ++, +, 0, -, -->
--

> <BIOSOLVEIT.INTER_CLASH range: red, yellow, green>
green

> <BIOSOLVEIT.INTRA_CLASH range: red, yellow, green>
green

> <BIOSOLVEIT.LOGP>
2.56868

> <BIOSOLVEIT.MOLECULAR WEIGHT>
454.551

> <BIOSOLVEIT.MOLECULE_CHECKSUM>
LTAuMzQ0MjI2OzAuMDEwMTI0Mw==

> <BIOSOLVEIT.TORSION_QUALITY range: red, yellow, green, not rotatable>
not rotatable

> <BIOSOLVEIT.TPSA>
87.76

$$$$
1LD7_U66_2
foHydescor03192112263D 1   1.00000     0.00000     0
Hydescorer 1.1.0 fol007
 62 67  0  0  0  0            999 V2000
   13.8695  132.9811   -2.9518 N   0  0  0  0  0  0  0  0  0  0  0  0
   13.9535  134.0010   -3.4920 C   0  0  0  0  0  0  0  0  0  0  0  0
   14.0606  135.3025   -4.1810 C   0  0  2  0  0  0  0  0  0  0  0  0
   14.4193  135.0996   -5.6650 C   0  0  0  0  0  0  0  0  0  0  0  0
   15.9016  134.9806   -5.9356 C   0  0  0  0  0  0  0  0  0  0  0  0
   16.8485  135.3873   -5.0608 C   0  0  0  0  0  0  0  0  0  0  0  0
   16.4935  135.6293   -3.6095 C   0  0  0  0  0  0  0  0  0  0  0  0
   15.0791  136.2317   -3.4895 C   0  0  2  0  0  0  0  0  0  0  0  0
   14.6875  136.4161   -2.1247 O   0  0  0  0  0  0  0  0  0  0  0  0
   14.9403  137.5670   -1.3623 C   0  0  0  0  0  0  0  0  0  0  0  0
   14.0657  137.8811   -0.3160 C   0  0  0  0  0  0  0  0  0  0  0  0
   14.2453  139.0455    0.4371 C   0  0  0  0  0  0  0  0  0  0  0  0
   15.3481  139.8783    0.1959 C   0  0  0  0  0  0  0  0  0  0  0  0
   15.5401  141.0484    0.9448 C   0  0  0  0  0  0  0  0  0  0  0  0
   16.6662  141.8455    0.7239 C   0  0  0  0  0  0  0  0  0  0  0  0
   17.6296  141.4601   -0.2118 C   0  0  0  0  0  0  0  0  0  0  0  0
   17.4597  140.2886   -0.9641 C   0  0  0  0  0  0  0  0  0  0  0  0
   16.2866  139.5233   -0.8018 C   0  0  0  0  0  0  0  0  0  0  0  0
   16.0358  138.4073   -1.6147 C   0  0  0  0  0  0  0  0  0  0  0  0
   18.5555  139.7789   -1.7398 N   0  0  0  0  0  0  0  0  0  0  0  0
   19.4160  138.7140   -1.2426 C   0  0  0  0  0  0  0  0  0  0  0  0
   20.6198  138.6467   -2.1989 C   0  0  0  0  0  0  0  0  0  0  0  0
   20.5994  139.9703   -2.9982 C   0  0  1  0  0  0  0  0  0  0  0  0
   20.9675  139.8833   -4.4341 N   0  3  0  0  0  0  0  0  0  0  0  0
   20.4556  138.7541   -5.2396 C   0  0  0  0  0  0  0  0  0  0  0  0
   18.9195  138.6627   -5.2936 C   0  0  0  0  0  0  0  0  0  0  0  0
   18.5016  137.8818   -6.5110 C   0  0  0  0  0  0  0  0  0  0  0  0
   18.4401  138.4038   -7.7862 C   0  0  0  0  0  0  0  0  0  0  0  0
   18.2511  137.4072   -8.6724 N   0  0  0  0  0  0  0  0  0  0  0  0
   18.2087  136.2907   -7.9171 C   0  0  0  0  0  0  0  0  0  0  0  0
   18.3652  136.5415   -6.5998 N   0  0  0  0  0  0  0  0  0  0  0  0
   18.2826  135.5473   -5.5237 C   0  0  0  0  0  0  0  0  0  0  0  0
   19.2361  140.4996   -2.7485 C   0  0  0  0  0  0  0  0  0  0  0  0
   18.7651  141.5357   -3.2900 O   0  0  0  0  0  0  0  0  0  0  0  0
   13.1649  135.7453   -4.1401 H   0  0  0  0  0  0  0  0  0  0  0  0
   14.0682  135.8805   -6.1817 H   0  0  0  0  0  0  0  0  0  0  0  0
   13.9746  134.2623   -5.9831 H   0  0  0  0  0  0  0  0  0  0  0  0
   16.1962  134.5817   -6.8040 H   0  0  0  0  0  0  0  0  0  0  0  0
   17.1557  136.2637   -3.2106 H   0  0  0  0  0  0  0  0  0  0  0  0
   16.5238  134.7610   -3.1146 H   0  0  0  0  0  0  0  0  0  0  0  0
   15.0679  137.1194   -3.9496 H   0  0  0  0  0  0  0  0  0  0  0  0
   13.3052  137.2670   -0.1049 H   0  0  0  0  0  0  0  0  0  0  0  0
   13.5858  139.2852    1.1496 H   0  0  0  0  0  0  0  0  0  0  0  0
   14.8698  141.3128    1.6382 H   0  0  0  0  0  0  0  0  0  0  0  0
   16.7831  142.6955    1.2376 H   0  0  0  0  0  0  0  0  0  0  0  0
   18.4452  142.0230   -0.3460 H   0  0  0  0  0  0  0  0  0  0  0  0
   16.6447  138.2085   -2.3826 H   0  0  0  0  0  0  0  0  0  0  0  0
   18.9244  137.8432   -1.2435 H   0  0  0  0  0  0  0  0  0  0  0  0
   19.7230  138.9225   -0.3141 H   0  0  0  0  0  0  0  0  0  0  0  0
   20.5301  137.8656   -2.8168 H   0  0  0  0  0  0  0  0  0  0  0  0
   21.4714  138.5660   -1.6810 H   0  0  0  0  0  0  0  0  0  0  0  0
   21.2472  140.5939   -2.5607 H   0  0  0  0  0  0  0  0  0  0  0  0
   21.9658  139.8459   -4.4787 H   0  0  0  0  0  0  0  0  0  0  0  0
   20.6456  140.7236   -4.8703 H   0  0  0  0  0  0  0  0  0  0  0  0
   20.8068  137.9042   -4.8469 H   0  0  0  0  0  0  0  0  0  0  0  0
   20.7969  138.8554   -6.1741 H   0  0  0  0  0  0  0  0  0  0  0  0
   18.5328  139.5837   -5.3403 H   0  0  0  0  0  0  0  0  0  0  0  0
   18.5846  138.2019   -4.4716 H   0  0  0  0  0  0  0  0  0  0  0  0
   18.5231  139.3731   -8.0173 H   0  0  0  0  0  0  0  0  0  0  0  0
   18.0755  135.3737   -8.2931 H   0  0  0  0  0  0  0  0  0  0  0  0
   18.8457  135.8476   -4.7538 H   0  0  0  0  0  0  0  0  0  0  0  0
   18.6200  134.6683   -5.8607 H   0  0  0  0  0  0  0  0  0  0  0  0
  1  2  3  0  0  0  0
  2  3  1  0  0  0  0
  3  4  1  0  0  0  0
  4  5  1  0  0  0  0
  5  6  2  0  0  0  0
  6  7  1  0  0  0  0
  7  8  1  0  0  0  0
  8  9  1  0  0  0  0
  9 10  1  0  0  0  0
 10 11  2  0  0  0  0
 11 12  1  0  0  0  0
 12 13  2  0  0  0  0
 13 14  1  0  0  0  0
 14 15  2  0  0  0  0
 15 16  1  0  0  0  0
 16 17  2  0  0  0  0
 17 18  1  0  0  0  0
 18 19  2  0  0  0  0
 17 20  1  0  0  0  0
 20 21  1  0  0  0  0
 21 22  1  0  0  0  0
 22 23  1  0  0  0  0
 23 24  1  0  0  0  0
 24 25  1  0  0  0  0
 25 26  1  0  0  0  0
 26 27  1  0  0  0  0
 27 28  2  0  0  0  0
 28 29  1  0  0  0  0
 29 30  2  0  0  0  0
 30 31  1  0  0  0  0
 31 32  1  0  0  0  0
 23 33  1  0  0  0  0
 33 34  2  0  0  0  0
  8  3  1  0  0  0  0
 19 10  1  0  0  0  0
 33 20  1  0  0  0  0
 32  6  1  0  0  0  0
 18 13  1  0  0  0  0
 31 27  1  0  0  0  0
  3 35  1  0  0  0  0
  4 36  1  0  0  0  0
  4 37  1  0  0  0  0
  5 38  1  0  0  0  0
  7 39  1  0  0  0  0
  7 40  1  0  0  0  0
  8 41  1  0  0  0  0
 11 42  1  0  0  0  0
 12 43  1  0  0  0  0
 14 44  1  0  0  0  0
 15 45  1  0  0  0  0
 16 46  1  0  0  0  0
 19 47  1  0  0  0  0
 21 48  1  0  0  0  0
 21 49  1  0  0  0  0
 22 50  1  0  0  0  0
 22 51  1  0  0  0  0
 23 52  1  0  0  0  0
 24 53  1  0  0  0  0
 24 54  1  0  0  0  0
 25 55  1  0  0  0  0
 25 56  1  0  0  0  0
 26 57  1  0  0  0  0
 26 58  1  0  0  0  0
 28 59  1  0  0  0  0
 30 60  1  0  0  0  0
 32 61  1  0  0  0  0
 32 62  1  0  0  0  0
M  CHG  1  24   1
M  END
> <BIOSOLVEIT.HYDE_ESTIMATED_AFFINITY_LOWER_BOUNDARY [nM]>
121331939.230124

> <BIOSOLVEIT.HYDE_ESTIMATED_AFFINITY_UPPER_BOUNDARY [nM]>
12055045533.711107

> <BIOSOLVEIT.HYDE_LIGAND_EFFICIENCY range: ++, +, 0, -, -->
--

> <BIOSOLVEIT.HYDE_LIGAND_LIPOPHILIC_EFFICIENCY range: ++, +, 0, -, -->
--

> <BIOSOLVEIT.INTER_CLASH range: red, yellow, green>
green

> <BIOSOLVEIT.INTRA_CLASH range: red, yellow, green>
green

> <BIOSOLVEIT.LOGP>
2.56868

> <BIOSOLVEIT.MOLECULAR WEIGHT>
454.551

> <BIOSOLVEIT.MOLECULE_CHECKSUM>
MC40NzEzMjI7MA==

> <BIOSOLVEIT.TORSION_QUALITY range: red, yellow, green, not rotatable>
not rotatable

> <BIOSOLVEIT.TPSA>
87.76

$$$$
1LD7_U66_3
foHydescor03192112263D 1   1.00000     0.00000     0
Hydescorer 1.1.0 fol007
 62 67  0  0  0  0            999 V2000
   13.7719  132.8887   -3.0987 N   0  0  0  0  0  0  0  0  0  0  0  0
   13.8688  133.9164   -3.6220 C   0  0  0  0  0  0  0  0  0  0  0  0
   13.9925  135.2277   -4.2892 C   0  0  2  0  0  0  0  0  0  0  0  0
   14.3467  135.0449   -5.7770 C   0  0  0  0  0  0  0  0  0  0  0  0
   15.8270  134.9106   -6.0516 C   0  0  0  0  0  0  0  0  0  0  0  0
   16.7803  135.2899   -5.1715 C   0  0  0  0  0  0  0  0  0  0  0  0
   16.4303  135.5124   -3.7159 C   0  0  0  0  0  0  0  0  0  0  0  0
   15.0242  136.1315   -3.5839 C   0  0  2  0  0  0  0  0  0  0  0  0
   14.6369  136.2983   -2.2156 O   0  0  0  0  0  0  0  0  0  0  0  0
   14.9059  137.4327   -1.4345 C   0  0  0  0  0  0  0  0  0  0  0  0
   14.0369  137.7409   -0.3817 C   0  0  0  0  0  0  0  0  0  0  0  0
   14.2330  138.8901    0.3904 C   0  0  0  0  0  0  0  0  0  0  0  0
   15.3465  139.7120    0.1616 C   0  0  0  0  0  0  0  0  0  0  0  0
   15.5552  140.8668    0.9298 C   0  0  0  0  0  0  0  0  0  0  0  0
   16.6915  141.6523    0.7204 C   0  0  0  0  0  0  0  0  0  0  0  0
   17.6485  141.2697   -0.2229 C   0  0  0  0  0  0  0  0  0  0  0  0
   17.4621  140.1133   -0.9944 C   0  0  0  0  0  0  0  0  0  0  0  0
   16.2790  139.3612   -0.8432 C   0  0  0  0  0  0  0  0  0  0  0  0
   16.0123  138.2624   -1.6743 C   0  0  0  0  0  0  0  0  0  0  0  0
   18.5499  139.6020   -1.7802 N   0  0  0  0  0  0  0  0  0  0  0  0
   19.3967  138.5177   -1.3020 C   0  0  0  0  0  0  0  0  0  0  0  0
   20.5984  138.4502   -2.2610 C   0  0  0  0  0  0  0  0  0  0  0  0
   20.5948  139.7871   -3.0380 C   0  0  1  0  0  0  0  0  0  0  0  0
   20.9599  139.7193   -4.4758 N   0  3  0  0  0  0  0  0  0  0  0  0
   20.4319  138.6107   -5.2992 C   0  0  0  0  0  0  0  0  0  0  0  0
   18.8947  138.5407   -5.3525 C   0  0  0  0  0  0  0  0  0  0  0  0
   18.4649  137.7859   -6.5822 C   0  0  0  0  0  0  0  0  0  0  0  0
   18.4089  138.3300   -7.8485 C   0  0  0  0  0  0  0  0  0  0  0  0
   18.2054  137.3510   -8.7510 N   0  0  0  0  0  0  0  0  0  0  0  0
   18.1490  136.2226   -8.0143 C   0  0  0  0  0  0  0  0  0  0  0  0
   18.3105  136.4492   -6.6933 N   0  0  0  0  0  0  0  0  0  0  0  0
   18.2158  135.4385   -5.6339 C   0  0  0  0  0  0  0  0  0  0  0  0
   19.2389  140.3305   -2.7775 C   0  0  0  0  0  0  0  0  0  0  0  0
   18.7811  141.3816   -3.3010 O   0  0  0  0  0  0  0  0  0  0  0  0
   13.1029  135.6817   -4.2397 H   0  0  0  0  0  0  0  0  0  0  0  0
   14.0055  135.8390   -6.2801 H   0  0  0  0  0  0  0  0  0  0  0  0
   13.8904  134.2191   -6.1084 H   0  0  0  0  0  0  0  0  0  0  0  0
   16.1151  134.5224   -6.9269 H   0  0  0  0  0  0  0  0  0  0  0  0
   17.1014  136.1310   -3.3074 H   0  0  0  0  0  0  0  0  0  0  0  0
   16.4496  134.6355   -3.2356 H   0  0  0  0  0  0  0  0  0  0  0  0
   15.0243  137.0269   -4.0290 H   0  0  0  0  0  0  0  0  0  0  0  0
   13.2686  137.1336   -0.1798 H   0  0  0  0  0  0  0  0  0  0  0  0
   13.5777  139.1267    1.1077 H   0  0  0  0  0  0  0  0  0  0  0  0
   14.8895  141.1284    1.6285 H   0  0  0  0  0  0  0  0  0  0  0  0
   16.8204  142.4919    1.2480 H   0  0  0  0  0  0  0  0  0  0  0  0
   18.4713  141.8238   -0.3487 H   0  0  0  0  0  0  0  0  0  0  0  0
   16.6175  138.0683   -2.4463 H   0  0  0  0  0  0  0  0  0  0  0  0
   18.8935  137.6537   -1.3167 H   0  0  0  0  0  0  0  0  0  0  0  0
   19.7076  138.7066   -0.3705 H   0  0  0  0  0  0  0  0  0  0  0  0
   20.4974  137.6809   -2.8918 H   0  0  0  0  0  0  0  0  0  0  0  0
   21.4494  138.3494   -1.7458 H   0  0  0  0  0  0  0  0  0  0  0  0
   21.2514  140.3946   -2.5910 H   0  0  0  0  0  0  0  0  0  0  0  0
   21.9576  139.6693   -4.5224 H   0  0  0  0  0  0  0  0  0  0  0  0
   20.6487  140.5711   -4.8973 H   0  0  0  0  0  0  0  0  0  0  0  0
   20.7722  137.7497   -4.9213 H   0  0  0  0  0  0  0  0  0  0  0  0
   20.7733  138.7231   -6.2325 H   0  0  0  0  0  0  0  0  0  0  0  0
   18.5203  139.4674   -5.3832 H   0  0  0  0  0  0  0  0  0  0  0  0
   18.5547  138.0707   -4.5380 H   0  0  0  0  0  0  0  0  0  0  0  0
   18.5046  139.3019   -8.0634 H   0  0  0  0  0  0  0  0  0  0  0  0
   18.0029  135.3139   -8.4054 H   0  0  0  0  0  0  0  0  0  0  0  0
   18.7839  135.7184   -4.8600 H   0  0  0  0  0  0  0  0  0  0  0  0
   18.5410  134.5609   -5.9859 H   0  0  0  0  0  0  0  0  0  0  0  0
  1  2  3  0  0  0  0
  2  3  1  0  0  0  0
  3  4  1  0  0  0  0
  4  5  1  0  0  0  0
  5  6  2  0  0  0  0
  6  7  1  0  0  0  0
  7  8  1  0  0  0  0
  8  9  1  0  0  0  0
  9 10  1  0  0  0  0
 10 11  2  0  0  0  0
 11 12  1  0  0  0  0
 12 13  2  0  0  0  0
 13 14  1  0  0  0  0
 14 15  2  0  0  0  0
 15 16  1  0  0  0  0
 16 17  2  0  0  0  0
 17 18  1  0  0  0  0
 18 19  2  0  0  0  0
 17 20  1  0  0  0  0
 20 21  1  0  0  0  0
 21 22  1  0  0  0  0
 22 23  1  0  0  0  0
 23 24  1  0  0  0  0
 24 25  1  0  0  0  0
 25 26  1  0  0  0  0
 26 27  1  0  0  0  0
 27 28  2  0  0  0  0
 28 29  1  0  0  0  0
 29 30  2  0  0  0  0
 30 31  1  0  0  0  0
 31 32  1  0  0  0  0
 23 33  1  0  0  0  0
 33 34  2  0  0  0  0
  8  3  1  0  0  0  0
 19 10  1  0  0  0  0
 33 20  1  0  0  0  0
 32  6  1  0  0  0  0
 18 13  1  0  0  0  0
 31 27  1  0  0  0  0
  3 35  1  0  0  0  0
  4 36  1  0  0  0  0
  4 37  1  0  0  0  0
  5 38  1  0  0  0  0
  7 39  1  0  0  0  0
  7 40  1  0  0  0  0
  8 41  1  0  0  0  0
 11 42  1  0  0  0  0
 12 43  1  0  0  0  0
 14 44  1  0  0  0  0
 15 45  1  0  0  0  0
 16 46  1  0  0  0  0
 19 47  1  0  0  0  0
 21 48  1  0  0  0  0
 21 49  1  0  0  0  0
 22 50  1  0  0  0  0
 22 51  1  0  0  0  0
 23 52  1  0  0  0  0
 24 53  1  0  0  0  0
 24 54  1  0  0  0  0
 25 55  1  0  0  0  0
 25 56  1  0  0  0  0
 26 57  1  0  0  0  0
 26 58  1  0  0  0  0
 28 59  1  0  0  0  0
 30 60  1  0  0  0  0
 32 61  1  0  0  0  0
 32 62  1  0  0  0  0
M  CHG  1  24   1
M  END
> <BIOSOLVEIT.HYDE_ESTIMATED_AFFINITY_LOWER_BOUNDARY [nM]>
53456436.796662

> <BIOSOLVEIT.HYDE_ESTIMATED_AFFINITY_UPPER_BOUNDARY [nM]>
5311213055.215988

> <BIOSOLVEIT.HYDE_LIGAND_EFFICIENCY range: ++, +, 0, -, -->
--

> <BIOSOLVEIT.HYDE_LIGAND_LIPOPHILIC_EFFICIENCY range: ++, +, 0, -, -->
--

> <BIOSOLVEIT.INTER_CLASH range: red, yellow, green>
green

> <BIOSOLVEIT.INTRA_CLASH range: red, yellow, green>
green

> <BIOSOLVEIT.LOGP>
2.56868

> <BIOSOLVEIT.MOLECULAR WEIGHT>
454.551

> <BIOSOLVEIT.MOLECULE_CHECKSUM>
LTEuNTYwNTk7MC4wNDU4OTk2

> <BIOSOLVEIT.TORSION_QUALITY range: red, yellow, green, not rotatable>
not rotatable

> <BIOSOLVEIT.TPSA>
87.76

$$$$
1S63_778_1
foHydescor03192112263D 1   1.00000     0.00000     0
Hydescorer 1.1.0 fol007
 50 53  0  0  0  0            999 V2000
   21.9619  139.0694   -1.1738 N   0  0  0  0  0  0  0  0  0  0  0  0
   21.2962  138.4918   -1.9235 C   0  0  0  0  0  0  0  0  0  0  0  0
   20.4216  137.7326   -2.9079 C   0  0  0  0  0  0  0  0  0  0  0  0
   19.0393  137.8770   -2.8444 C   0  0  0  0  0  0  0  0  0  0  0  0
   18.2265  137.1890   -3.7391 C   0  0  0  0  0  0  0  0  0  0  0  0
   18.8134  136.3609   -4.6903 C   0  0  0  0  0  0  0  0  0  0  0  0
   17.9448  135.6090   -5.6641 C   0  0  0  0  0  0  0  0  0  0  0  0
   17.6347  136.4393   -6.8374 N   0  0  0  0  0  0  0  0  0  0  0  0
   18.3231  136.4309   -8.0154 C   0  0  0  0  0  0  0  0  0  0  0  0
   17.7514  137.2995   -8.8202 N   0  0  0  0  0  0  0  0  0  0  0  0
   16.6945  137.8735   -8.1720 C   0  0  0  0  0  0  0  0  0  0  0  0
   16.6144  137.3366   -6.9202 C   0  0  0  0  0  0  0  0  0  0  0  0
   15.5972  137.6686   -5.8541 C   0  0  0  0  0  0  0  0  0  0  0  0
   14.3852  136.8481   -5.9684 N   0  3  1  0  0  0  0  0  0  0  0  0
   14.8202  135.5823   -6.5932 C   0  0  0  0  0  0  0  0  0  0  0  0
   14.3240  134.2934   -5.9404 C   0  0  0  0  0  0  0  0  0  0  0  0
   14.5355  134.3453   -4.4876 N   0  0  0  0  0  0  0  0  0  0  0  0
   14.9771  133.2018   -3.8106 C   0  0  0  0  0  0  0  0  0  0  0  0
   14.0786  132.1722   -3.5496 C   0  0  0  0  0  0  0  0  0  0  0  0
   14.5230  131.0378   -2.8781 C   0  0  0  0  0  0  0  0  0  0  0  0
   15.8472  130.9251   -2.4687 C   0  0  0  0  0  0  0  0  0  0  0  0
   16.7290  131.9664   -2.7404 C   0  0  0  0  0  0  0  0  0  0  0  0
   18.4280  131.8413   -2.2252 Cl  0  0  0  0  0  0  0  0  0  0  0  0
   16.3059  133.1095   -3.4104 C   0  0  0  0  0  0  0  0  0  0  0  0
   14.2839  135.5500   -3.8156 C   0  0  0  0  0  0  0  0  0  0  0  0
   14.4660  135.6297   -2.6087 O   0  0  0  0  0  0  0  0  0  0  0  0
   13.8040  136.7564   -4.6099 C   0  0  0  0  0  0  0  0  0  0  0  0
   20.1951  136.2138   -4.7563 C   0  0  0  0  0  0  0  0  0  0  0  0
   21.0056  136.9036   -3.8602 C   0  0  0  0  0  0  0  0  0  0  0  0
   18.6301  138.4753   -2.1554 H   0  0  0  0  0  0  0  0  0  0  0  0
   17.2323  137.2886   -3.6992 H   0  0  0  0  0  0  0  0  0  0  0  0
   17.0917  135.3508   -5.2107 H   0  0  0  0  0  0  0  0  0  0  0  0
   18.4257  134.7850   -5.9637 H   0  0  0  0  0  0  0  0  0  0  0  0
   19.1198  135.8655   -8.2285 H   0  0  0  0  0  0  0  0  0  0  0  0
   16.0836  138.5688   -8.5506 H   0  0  0  0  0  0  0  0  0  0  0  0
   15.3432  138.6319   -5.9403 H   0  0  0  0  0  0  0  0  0  0  0  0
   16.0088  137.5116   -4.9563 H   0  0  0  0  0  0  0  0  0  0  0  0
   13.7343  137.3064   -6.5737 H   0  0  0  0  0  0  0  0  0  0  0  0
   15.8199  135.5645   -6.5791 H   0  0  0  0  0  0  0  0  0  0  0  0
   14.5002  135.5855   -7.5406 H   0  0  0  0  0  0  0  0  0  0  0  0
   14.8266  133.5165   -6.3197 H   0  0  0  0  0  0  0  0  0  0  0  0
   13.3481  134.1828   -6.1282 H   0  0  0  0  0  0  0  0  0  0  0  0
   13.1249  132.2467   -3.8411 H   0  0  0  0  0  0  0  0  0  0  0  0
   13.8823  130.2942   -2.6875 H   0  0  0  0  0  0  0  0  0  0  0  0
   16.1611  130.1074   -1.9860 H   0  0  0  0  0  0  0  0  0  0  0  0
   16.9468  133.8531   -3.6012 H   0  0  0  0  0  0  0  0  0  0  0  0
   14.0499  137.5841   -4.1054 H   0  0  0  0  0  0  0  0  0  0  0  0
   12.8092  136.7017   -4.6958 H   0  0  0  0  0  0  0  0  0  0  0  0
   20.6040  135.6148   -5.4448 H   0  0  0  0  0  0  0  0  0  0  0  0
   21.9998  136.8042   -3.9003 H   0  0  0  0  0  0  0  0  0  0  0  0
  1  2  3  0  0  0  0
  2  3  1  0  0  0  0
  3  4  2  0  0  0  0
  4  5  1  0  0  0  0
  5  6  2  0  0  0  0
  6  7  1  0  0  0  0
  7  8  1  0  0  0  0
  8  9  1  0  0  0  0
  9 10  2  0  0  0  0
 10 11  1  0  0  0  0
 11 12  2  0  0  0  0
 12 13  1  0  0  0  0
 13 14  1  0  0  0  0
 14 15  1  0  0  0  0
 15 16  1  0  0  0  0
 16 17  1  0  0  0  0
 17 18  1  0  0  0  0
 18 19  2  0  0  0  0
 19 20  1  0  0  0  0
 20 21  2  0  0  0  0
 21 22  1  0  0  0  0
 22 23  1  0  0  0  0
 22 24  2  0  0  0  0
 17 25  1  0  0  0  0
 25 26  2  0  0  0  0
 25 27  1  0  0  0  0
  6 28  1  0  0  0  0
 28 29  2  0  0  0  0
 29  3  1  0  0  0  0
 12  8  1  0  0  0  0
 27 14  1  0  0  0  0
 24 18  1  0  0  0  0
  4 30  1  0  0  0  0
  5 31  1  0  0  0  0
  7 32  1  0  0  0  0
  7 33  1  0  0  0  0
  9 34  1  0  0  0  0
 11 35  1  0  0  0  0
 13 36  1  0  0  0  0
 13 37  1  0  0  0  0
 14 38  1  0  0  0  0
 15 39  1  0  0  0  0
 15 40  1  0  0  0  0
 16 41  1  0  0  0  0
 16 42  1  0  0  0  0
 19 43  1  0  0  0  0
 20 44  1  0  0  0  0
 21 45  1  0  0  0  0
 24 46  1  0  0  0  0
 27 47  1  0  0  0  0
 27 48  1  0  0  0  0
 28 49  1  0  0  0  0
 29 50  1  0  0  0  0
M  CHG  1  14   1
M  END
> <BIOSOLVEIT.HYDE_ESTIMATED_AFFINITY_LOWER_BOUNDARY [nM]>
373989.445662

> <BIOSOLVEIT.HYDE_ESTIMATED_AFFINITY_UPPER_BOUNDARY [nM]>
37158062.627161

> <BIOSOLVEIT.HYDE_LIGAND_EFFICIENCY range: ++, +, 0, -, -->
--

> <BIOSOLVEIT.HYDE_LIGAND_LIPOPHILIC_EFFICIENCY range: ++, +, 0, -, -->
--

> <BIOSOLVEIT.INTER_CLASH range: red, yellow, green>
green

> <BIOSOLVEIT.INTRA_CLASH range: red, yellow, green>
green

> <BIOSOLVEIT.LOGP>
1.88818

> <BIOSOLVEIT.MOLECULAR WEIGHT>
406.895

> <BIOSOLVEIT.MOLECULE_CHECKSUM>
LTEzLjg2MjI7MC40NzgwMDU=

> <BIOSOLVEIT.TORSION_QUALITY range: red, yellow, green, not rotatable>
green

> <BIOSOLVEIT.TPSA>
66.36

$$$$
1S63_778_2
foHydescor03192112263D 1   1.00000     0.00000     0
Hydescorer 1.1.0 fol007
 50 53  0  0  0  0            999 V2000
   21.8963  139.0125   -1.1693 N   0  0  0  0  0  0  0  0  0  0  0  0
   21.2367  138.4452   -1.9321 C   0  0  0  0  0  0  0  0  0  0  0  0
   20.3701  137.6996   -2.9337 C   0  0  0  0  0  0  0  0  0  0  0  0
   18.9912  137.8840   -2.9132 C   0  0  0  0  0  0  0  0  0  0  0  0
   18.1858  137.2089   -3.8241 C   0  0  0  0  0  0  0  0  0  0  0  0
   18.7765  136.3530   -4.7480 C   0  0  0  0  0  0  0  0  0  0  0  0
   17.9157  135.6146   -5.7389 C   0  0  0  0  0  0  0  0  0  0  0  0
   17.6133  136.4614   -6.9023 N   0  0  0  0  0  0  0  0  0  0  0  0
   18.3765  136.5580   -8.0291 C   0  0  0  0  0  0  0  0  0  0  0  0
   17.7863  137.4065   -8.8419 N   0  0  0  0  0  0  0  0  0  0  0  0
   16.6428  137.8631   -8.2498 C   0  0  0  0  0  0  0  0  0  0  0  0
   16.5266  137.2721   -7.0256 C   0  0  0  0  0  0  0  0  0  0  0  0
   15.4159  137.4746   -6.0221 C   0  0  0  0  0  0  0  0  0  0  0  0
   14.2624  136.6061   -6.2881 N   0  3  1  0  0  0  0  0  0  0  0  0
   14.7460  135.5835   -7.2380 C   0  0  0  0  0  0  0  0  0  0  0  0
   14.3910  134.1326   -6.9179 C   0  0  0  0  0  0  0  0  0  0  0  0
   14.6957  133.8331   -5.5123 N   0  0  0  0  0  0  0  0  0  0  0  0
   15.2648  132.5988   -5.1747 C   0  0  0  0  0  0  0  0  0  0  0  0
   14.4635  131.4619   -5.1447 C   0  0  0  0  0  0  0  0  0  0  0  0
   15.0344  130.2383   -4.8102 C   0  0  0  0  0  0  0  0  0  0  0  0
   16.3884  130.1424   -4.5079 C   0  0  0  0  0  0  0  0  0  0  0  0
   17.1715  131.2917   -4.5445 C   0  0  0  0  0  0  0  0  0  0  0  0
   18.9065  131.1902   -4.1614 Cl  0  0  0  0  0  0  0  0  0  0  0  0
   16.6213  132.5255   -4.8762 C   0  0  0  0  0  0  0  0  0  0  0  0
   14.4023  134.8008   -4.5412 C   0  0  0  0  0  0  0  0  0  0  0  0
   14.6591  134.5879   -3.3644 O   0  0  0  0  0  0  0  0  0  0  0  0
   13.7825  136.1221   -4.9738 C   0  0  0  0  0  0  0  0  0  0  0  0
   20.1546  136.1656   -4.7710 C   0  0  0  0  0  0  0  0  0  0  0  0
   20.9579  136.8428   -3.8588 C   0  0  0  0  0  0  0  0  0  0  0  0
   18.5793  138.5020   -2.2435 H   0  0  0  0  0  0  0  0  0  0  0  0
   17.1941  137.3372   -3.8150 H   0  0  0  0  0  0  0  0  0  0  0  0
   17.0596  135.3490   -5.2954 H   0  0  0  0  0  0  0  0  0  0  0  0
   18.3996  134.7954   -6.0468 H   0  0  0  0  0  0  0  0  0  0  0  0
   19.2318  136.0706   -8.2053 H   0  0  0  0  0  0  0  0  0  0  0  0
   16.0003  138.5189   -8.6463 H   0  0  0  0  0  0  0  0  0  0  0  0
   15.1167  138.4280   -6.0609 H   0  0  0  0  0  0  0  0  0  0  0  0
   15.7671  137.2725   -5.1079 H   0  0  0  0  0  0  0  0  0  0  0  0
   13.5403  137.1435   -6.7237 H   0  0  0  0  0  0  0  0  0  0  0  0
   15.7430  135.6511   -7.2753 H   0  0  0  0  0  0  0  0  0  0  0  0
   14.3635  135.7986   -8.1365 H   0  0  0  0  0  0  0  0  0  0  0  0
   14.9226  133.5248   -7.5078 H   0  0  0  0  0  0  0  0  0  0  0  0
   13.4154  133.9874   -7.0824 H   0  0  0  0  0  0  0  0  0  0  0  0
   13.4891  131.5236   -5.3610 H   0  0  0  0  0  0  0  0  0  0  0  0
   14.4639  129.4173   -4.7867 H   0  0  0  0  0  0  0  0  0  0  0  0
   16.7934  129.2602   -4.2678 H   0  0  0  0  0  0  0  0  0  0  0  0
   17.1918  133.3464   -4.8997 H   0  0  0  0  0  0  0  0  0  0  0  0
   14.0006  136.8131   -4.2848 H   0  0  0  0  0  0  0  0  0  0  0  0
   12.7909  136.0034   -5.0246 H   0  0  0  0  0  0  0  0  0  0  0  0
   20.5662  135.5469   -5.4401 H   0  0  0  0  0  0  0  0  0  0  0  0
   21.9496  136.7147   -3.8682 H   0  0  0  0  0  0  0  0  0  0  0  0
  1  2  3  0  0  0  0
  2  3  1  0  0  0  0
  3  4  2  0  0  0  0
  4  5  1  0  0  0  0
  5  6  2  0  0  0  0
  6  7  1  0  0  0  0
  7  8  1  0  0  0  0
  8  9  1  0  0  0  0
  9 10  2  0  0  0  0
 10 11  1  0  0  0  0
 11 12  2  0  0  0  0
 12 13  1  0  0  0  0
 13 14  1  0  0  0  0
 14 15  1  0  0  0  0
 15 16  1  0  0  0  0
 16 17  1  0  0  0  0
 17 18  1  0  0  0  0
 18 19  2  0  0  0  0
 19 20  1  0  0  0  0
 20 21  2  0  0  0  0
 21 22  1  0  0  0  0
 22 23  1  0  0  0  0
 22 24  2  0  0  0  0
 17 25  1  0  0  0  0
 25 26  2  0  0  0  0
 25 27  1  0  0  0  0
  6 28  1  0  0  0  0
 28 29  2  0  0  0  0
 29  3  1  0  0  0  0
 12  8  1  0  0  0  0
 27 14  1  0  0  0  0
 24 18  1  0  0  0  0
  4 30  1  0  0  0  0
  5 31  1  0  0  0  0
  7 32  1  0  0  0  0
  7 33  1  0  0  0  0
  9 34  1  0  0  0  0
 11 35  1  0  0  0  0
 13 36  1  0  0  0  0
 13 37  1  0  0  0  0
 14 38  1  0  0  0  0
 15 39  1  0  0  0  0
 15 40  1  0  0  0  0
 16 41  1  0  0  0  0
 16 42  1  0  0  0  0
 19 43  1  0  0  0  0
 20 44  1  0  0  0  0
 21 45  1  0  0  0  0
 24 46  1  0  0  0  0
 27 47  1  0  0  0  0
 27 48  1  0  0  0  0
 28 49  1  0  0  0  0
 29 50  1  0  0  0  0
M  CHG  1  14   1
M  END
> <BIOSOLVEIT.HYDE_ESTIMATED_AFFINITY_LOWER_BOUNDARY [nM]>
1829269.956362

> <BIOSOLVEIT.HYDE_ESTIMATED_AFFINITY_UPPER_BOUNDARY [nM]>
181748785.664460

> <BIOSOLVEIT.HYDE_LIGAND_EFFICIENCY range: ++, +, 0, -, -->
--

> <BIOSOLVEIT.HYDE_LIGAND_LIPOPHILIC_EFFICIENCY range: ++, +, 0, -, -->
--

> <BIOSOLVEIT.INTER_CLASH range: red, yellow, green>
green

> <BIOSOLVEIT.INTRA_CLASH range: red, yellow, green>
green

> <BIOSOLVEIT.LOGP>
1.88818

> <BIOSOLVEIT.MOLECULAR WEIGHT>
406.895

> <BIOSOLVEIT.MOLECULE_CHECKSUM>
LTkuOTI2OTQ7MC4zNDIzMDg=

> <BIOSOLVEIT.TORSION_QUALITY range: red, yellow, green, not rotatable>
green

> <BIOSOLVEIT.TPSA>
66.36

$$$$
1S63_778_3
foHydescor03192112263D 1   1.00000     0.00000     0
Hydescorer 1.1.0 fol007
 50 53  0  0  0  0            999 V2000
   22.3552  138.2901   -1.0457 N   0  0  0  0  0  0  0  0  0  0  0  0
   21.6047  137.8081   -1.7828 C   0  0  0  0  0  0  0  0  0  0  0  0
   20.6189  137.1743   -2.7506 C   0  0  0  0  0  0  0  0  0  0  0  0
   19.2837  137.0489   -2.3799 C   0  0  0  0  0  0  0  0  0  0  0  0
   18.3703  136.4717   -3.2556 C   0  0  0  0  0  0  0  0  0  0  0  0
   18.8099  136.0251   -4.4974 C   0  0  0  0  0  0  0  0  0  0  0  0
   17.8316  135.3967   -5.4545 C   0  0  0  0  0  0  0  0  0  0  0  0
   17.4964  136.3249   -6.5446 N   0  0  0  0  0  0  0  0  0  0  0  0
   18.0270  136.2925   -7.8011 C   0  0  0  0  0  0  0  0  0  0  0  0
   17.4854  137.2725   -8.4906 N   0  0  0  0  0  0  0  0  0  0  0  0
   16.6052  137.9429   -7.6891 C   0  0  0  0  0  0  0  0  0  0  0  0
   16.6066  137.3516   -6.4595 C   0  0  0  0  0  0  0  0  0  0  0  0
   15.7836  137.7539   -5.2584 C   0  0  0  0  0  0  0  0  0  0  0  0
   14.4540  137.1314   -5.2630 N   0  3  1  0  0  0  0  0  0  0  0  0
   14.6103  135.8665   -6.0095 C   0  0  0  0  0  0  0  0  0  0  0  0
   14.0006  134.6187   -5.3731 C   0  0  0  0  0  0  0  0  0  0  0  0
   14.3877  134.5288   -3.9587 N   0  0  0  0  0  0  0  0  0  0  0  0
   14.7232  133.2847   -3.4102 C   0  0  0  0  0  0  0  0  0  0  0  0
   13.7507  132.2943   -3.3162 C   0  0  0  0  0  0  0  0  0  0  0  0
   14.0899  131.0599   -2.7719 C   0  0  0  0  0  0  0  0  0  0  0  0
   15.3826  130.8094   -2.3244 C   0  0  0  0  0  0  0  0  0  0  0  0
   16.3397  131.8137   -2.4283 C   0  0  0  0  0  0  0  0  0  0  0  0
   17.9998  131.5128   -1.8618 Cl  0  0  0  0  0  0  0  0  0  0  0  0
   16.0222  133.0553   -2.9691 C   0  0  0  0  0  0  0  0  0  0  0  0
   14.4073  135.7028   -3.1925 C   0  0  0  0  0  0  0  0  0  0  0  0
   14.7408  135.6632   -2.0164 O   0  0  0  0  0  0  0  0  0  0  0  0
   14.0301  137.0235   -3.8486 C   0  0  0  0  0  0  0  0  0  0  0  0
   20.1442  136.1483   -4.8711 C   0  0  0  0  0  0  0  0  0  0  0  0
   21.0556  136.7266   -3.9933 C   0  0  0  0  0  0  0  0  0  0  0  0
   18.9808  137.3738   -1.4839 H   0  0  0  0  0  0  0  0  0  0  0  0
   17.4092  136.3788   -2.9956 H   0  0  0  0  0  0  0  0  0  0  0  0
   16.9964  135.1574   -4.9593 H   0  0  0  0  0  0  0  0  0  0  0  0
   18.2379  134.5692   -5.8420 H   0  0  0  0  0  0  0  0  0  0  0  0
   18.7062  135.6402   -8.1375 H   0  0  0  0  0  0  0  0  0  0  0  0
   16.0537  138.7326   -7.9580 H   0  0  0  0  0  0  0  0  0  0  0  0
   15.6738  138.7479   -5.2616 H   0  0  0  0  0  0  0  0  0  0  0  0
   16.2670  137.4747   -4.4288 H   0  0  0  0  0  0  0  0  0  0  0  0
   13.8153  137.7249   -5.7527 H   0  0  0  0  0  0  0  0  0  0  0  0
   15.5897  135.7009   -6.1247 H   0  0  0  0  0  0  0  0  0  0  0  0
   14.1851  135.9886   -6.9063 H   0  0  0  0  0  0  0  0  0  0  0  0
   14.3282  133.8075   -5.8573 H   0  0  0  0  0  0  0  0  0  0  0  0
   13.0041  134.6673   -5.4402 H   0  0  0  0  0  0  0  0  0  0  0  0
   12.8192  132.4677   -3.6361 H   0  0  0  0  0  0  0  0  0  0  0  0
   13.3955  130.3438   -2.7014 H   0  0  0  0  0  0  0  0  0  0  0  0
   15.6208  129.9202   -1.9337 H   0  0  0  0  0  0  0  0  0  0  0  0
   16.7166  133.7714   -3.0396 H   0  0  0  0  0  0  0  0  0  0  0  0
   14.4594  137.7652   -3.3335 H   0  0  0  0  0  0  0  0  0  0  0  0
   13.0358  137.1223   -3.8091 H   0  0  0  0  0  0  0  0  0  0  0  0
   20.4469  135.8225   -5.7668 H   0  0  0  0  0  0  0  0  0  0  0  0
   22.0166  136.8197   -4.2535 H   0  0  0  0  0  0  0  0  0  0  0  0
  1  2  3  0  0  0  0
  2  3  1  0  0  0  0
  3  4  2  0  0  0  0
  4  5  1  0  0  0  0
  5  6  2  0  0  0  0
  6  7  1  0  0  0  0
  7  8  1  0  0  0  0
  8  9  1  0  0  0  0
  9 10  2  0  0  0  0
 10 11  1  0  0  0  0
 11 12  2  0  0  0  0
 12 13  1  0  0  0  0
 13 14  1  0  0  0  0
 14 15  1  0  0  0  0
 15 16  1  0  0  0  0
 16 17  1  0  0  0  0
 17 18  1  0  0  0  0
 18 19  2  0  0  0  0
 19 20  1  0  0  0  0
 20 21  2  0  0  0  0
 21 22  1  0  0  0  0
 22 23  1  0  0  0  0
 22 24  2  0  0  0  0
 17 25  1  0  0  0  0
 25 26  2  0  0  0  0
 25 27  1  0  0  0  0
  6 28  1  0  0  0  0
 28 29  2  0  0  0  0
 29  3  1  0  0  0  0
 12  8  1  0  0  0  0
 27 14  1  0  0  0  0
 24 18  1  0  0  0  0
  4 30  1  0  0  0  0
  5 31  1  0  0  0  0
  7 32  1  0  0  0  0
  7 33  1  0  0  0  0
  9 34  1  0  0  0  0
 11 35  1  0  0  0  0
 13 36  1  0  0  0  0
 13 37  1  0  0  0  0
 14 38  1  0  0  0  0
 15 39  1  0  0  0  0
 15 40  1  0  0  0  0
 16 41  1  0  0  0  0
 16 42  1  0  0  0  0
 19 43  1  0  0  0  0
 20 44  1  0  0  0  0
 21 45  1  0  0  0  0
 24 46  1  0  0  0  0
 27 47  1  0  0  0  0
 27 48  1  0  0  0  0
 28 49  1  0  0  0  0
 29 50  1  0  0  0  0
M  CHG  1  14   1
M  END
> <BIOSOLVEIT.HYDE_ESTIMATED_AFFINITY_LOWER_BOUNDARY [nM]>
822506.642951

> <BIOSOLVEIT.HYDE_ESTIMATED_AFFINITY_UPPER_BOUNDARY [nM]>
81720898.021298

> <BIOSOLVEIT.HYDE_LIGAND_EFFICIENCY range: ++, +, 0, -, -->
--

> <BIOSOLVEIT.HYDE_LIGAND_LIPOPHILIC_EFFICIENCY range: ++, +, 0, -, -->
--

> <BIOSOLVEIT.INTER_CLASH range: red, yellow, green>
green

> <BIOSOLVEIT.INTRA_CLASH range: red, yellow, green>
green

> <BIOSOLVEIT.LOGP>
1.88818

> <BIOSOLVEIT.MOLECULAR WEIGHT>
406.895

> <BIOSOLVEIT.MOLECULE_CHECKSUM>
LTExLjkwODQ7MC40MTA2MzU=

> <BIOSOLVEIT.TORSION_QUALITY range: red, yellow, green, not rotatable>
green

> <BIOSOLVEIT.TPSA>
66.36

$$$$
3E37_ED5_1
foHydescor03192112263D 1   1.00000     0.00000     0
Hydescorer 1.1.0 fol007
 85 88  0  0  0  0            999 V2000
   19.4743  128.7651   -4.4758 C   0  0  0  0  0  0  0  0  0  0  0  0
   18.5803  129.1904   -3.3221 C   0  0  0  0  0  0  0  0  0  0  0  0
   17.8956  128.2036   -2.6202 C   0  0  0  0  0  0  0  0  0  0  0  0
   17.0714  128.5669   -1.5608 C   0  0  0  0  0  0  0  0  0  0  0  0
   16.9378  129.9068   -1.2118 C   0  0  0  0  0  0  0  0  0  0  0  0
   17.6216  130.8949   -1.9127 C   0  0  0  0  0  0  0  0  0  0  0  0
   18.4460  130.5311   -2.9730 C   0  0  0  0  0  0  0  0  0  0  0  0
   19.3146  131.8111   -3.8597 S   0  0  0  0  0  0  0  0  0  0  0  0
   20.7283  131.3461   -4.0791 O   0  0  0  0  0  0  0  0  0  0  0  0
   18.7079  132.0443   -5.2136 O   0  0  0  0  0  0  0  0  0  0  0  0
   19.2935  133.3311   -2.9744 N   0  0  0  0  0  0  0  0  0  0  0  0
   17.9246  133.8824   -2.9424 C   0  0  0  0  0  0  0  0  0  0  0  0
   17.6990  134.8603   -4.1016 C   0  0  0  0  0  0  0  0  0  0  0  0
   16.2749  134.9296   -4.4614 N   0  0  0  0  0  0  0  0  0  0  0  0
   15.7807  135.9832   -5.3548 C   0  0  0  0  0  0  0  0  0  0  0  0
   16.6824  136.1367   -6.5451 C   0  0  0  0  0  0  0  0  0  0  0  0
   16.7008  135.3266   -7.6423 C   0  0  0  0  0  0  0  0  0  0  0  0
   17.6578  135.8158   -8.4811 N   0  0  0  0  0  0  0  0  0  0  0  0
   18.2023  136.8767   -7.9248 C   0  0  0  0  0  0  0  0  0  0  0  0
   17.6145  137.1102   -6.7205 N   0  0  0  0  0  0  0  0  0  0  0  0
   17.9308  138.1984   -5.7834 C   0  0  0  0  0  0  0  0  0  0  0  0
   15.4291  133.8641   -4.1298 C   0  0  0  0  0  0  0  0  0  0  0  0
   15.3710  132.7530   -4.9649 C   0  0  0  0  0  0  0  0  0  0  0  0
   14.5348  131.6878   -4.6479 C   0  0  0  0  0  0  0  0  0  0  0  0
   13.7648  131.7508   -3.4917 C   0  0  0  0  0  0  0  0  0  0  0  0
   12.8966  130.6544   -3.1519 C   0  0  0  0  0  0  0  0  0  0  0  0
   12.1990  129.7730   -2.8780 N   0  0  0  0  0  0  0  0  0  0  0  0
   13.8198  132.8594   -2.6531 C   0  0  0  0  0  0  0  0  0  0  0  0
   14.6571  133.9230   -2.9740 C   0  0  0  0  0  0  0  0  0  0  0  0
   19.8440  133.1651   -1.6099 C   0  0  0  0  0  0  0  0  0  0  0  0
   19.0940  134.0607   -0.5963 C   0  0  0  0  0  0  0  0  0  0  0  0
   19.7965  135.3973   -0.4193 C   0  0  0  0  0  0  0  0  0  0  0  0
   18.9201  136.3239    0.4070 C   0  0  0  0  0  0  0  0  0  0  0  0
   17.9018  135.5678    1.1548 N   0  0  0  0  0  0  0  0  0  0  0  0
   16.6754  136.1906    1.3829 C   0  0  0  0  0  0  0  0  0  0  0  0
   16.3994  136.6464    2.5258 O   0  0  0  0  0  0  0  0  0  0  0  0
   15.7537  136.2967    0.3281 O   0  0  0  0  0  0  0  0  0  0  0  0
   15.2296  137.5099   -0.2302 C   0  0  0  0  0  0  0  0  0  0  0  0
   16.2308  138.6673   -0.0516 C   0  0  0  0  0  0  0  0  0  0  0  0
   13.9437  137.8441    0.5414 C   0  0  0  0  0  0  0  0  0  0  0  0
   14.8828  137.3154   -1.7182 C   0  0  0  0  0  0  0  0  0  0  0  0
   18.0886  134.2016    1.6678 C   0  0  0  0  0  0  0  0  0  0  0  0
   19.0292  133.4100    0.7757 C   0  0  0  0  0  0  0  0  0  0  0  0
   19.8989  129.5733   -4.8839 H   0  0  0  0  0  0  0  0  0  0  0  0
   20.1860  128.1499   -4.1367 H   0  0  0  0  0  0  0  0  0  0  0  0
   18.9260  128.2924   -5.1656 H   0  0  0  0  0  0  0  0  0  0  0  0
   17.9951  127.2418   -2.8752 H   0  0  0  0  0  0  0  0  0  0  0  0
   16.5750  127.8652   -1.0499 H   0  0  0  0  0  0  0  0  0  0  0  0
   16.3439  130.1625   -0.4489 H   0  0  0  0  0  0  0  0  0  0  0  0
   17.5218  131.8566   -1.6573 H   0  0  0  0  0  0  0  0  0  0  0  0
   17.7861  134.3637   -2.0768 H   0  0  0  0  0  0  0  0  0  0  0  0
   17.2679  133.1318   -3.0152 H   0  0  0  0  0  0  0  0  0  0  0  0
   18.2225  134.5525   -4.8959 H   0  0  0  0  0  0  0  0  0  0  0  0
   18.0119  135.7698   -3.8280 H   0  0  0  0  0  0  0  0  0  0  0  0
   15.7473  136.8486   -4.8547 H   0  0  0  0  0  0  0  0  0  0  0  0
   14.8618  135.7436   -5.6680 H   0  0  0  0  0  0  0  0  0  0  0  0
   16.1225  134.5264   -7.8012 H   0  0  0  0  0  0  0  0  0  0  0  0
   18.9352  137.4265   -8.3256 H   0  0  0  0  0  0  0  0  0  0  0  0
   17.3426  138.1261   -4.9779 H   0  0  0  0  0  0  0  0  0  0  0  0
   18.8886  138.1299   -5.5040 H   0  0  0  0  0  0  0  0  0  0  0  0
   17.7763  139.0792   -6.2310 H   0  0  0  0  0  0  0  0  0  0  0  0
   15.9304  132.7202   -5.7932 H   0  0  0  0  0  0  0  0  0  0  0  0
   14.4878  130.8864   -5.2441 H   0  0  0  0  0  0  0  0  0  0  0  0
   13.2608  132.8916   -1.8246 H   0  0  0  0  0  0  0  0  0  0  0  0
   14.7036  134.7245   -2.3779 H   0  0  0  0  0  0  0  0  0  0  0  0
   20.8119  133.4168   -1.6150 H   0  0  0  0  0  0  0  0  0  0  0  0
   19.7498  132.2087   -1.3335 H   0  0  0  0  0  0  0  0  0  0  0  0
   18.1639  134.2210   -0.9268 H   0  0  0  0  0  0  0  0  0  0  0  0
   19.9632  135.8077   -1.3159 H   0  0  0  0  0  0  0  0  0  0  0  0
   20.6682  135.2563    0.0501 H   0  0  0  0  0  0  0  0  0  0  0  0
   18.4630  136.9709   -0.2034 H   0  0  0  0  0  0  0  0  0  0  0  0
   19.4945  136.8251    1.0541 H   0  0  0  0  0  0  0  0  0  0  0  0
   15.8484  139.5027   -0.4462 H   0  0  0  0  0  0  0  0  0  0  0  0
   16.4064  138.8089    0.9226 H   0  0  0  0  0  0  0  0  0  0  0  0
   17.0875  138.4414   -0.5153 H   0  0  0  0  0  0  0  0  0  0  0  0
   13.5472  138.6876    0.1791 H   0  0  0  0  0  0  0  0  0  0  0  0
   13.2883  137.0960    0.4368 H   0  0  0  0  0  0  0  0  0  0  0  0
   14.1584  137.9660    1.5104 H   0  0  0  0  0  0  0  0  0  0  0  0
   14.5195  138.1697   -2.0902 H   0  0  0  0  0  0  0  0  0  0  0  0
   15.7072  137.0565   -2.2215 H   0  0  0  0  0  0  0  0  0  0  0  0
   14.1964  136.5938   -1.8089 H   0  0  0  0  0  0  0  0  0  0  0  0
   17.2021  133.7401    1.6997 H   0  0  0  0  0  0  0  0  0  0  0  0
   18.4737  134.2481    2.5895 H   0  0  0  0  0  0  0  0  0  0  0  0
   18.6923  132.4729    0.6846 H   0  0  0  0  0  0  0  0  0  0  0  0
   19.9428  133.3977    1.1823 H   0  0  0  0  0  0  0  0  0  0  0  0
  1  2  1  0  0  0  0
  2  3  2  0  0  0  0
  3  4  1  0  0  0  0
  4  5  2  0  0  0  0
  5  6  1  0  0  0  0
  6  7  2  0  0  0  0
  7  8  1  0  0  0  0
  8  9  2  0  0  0  0
  8 10  2  0  0  0  0
  8 11  1  0  0  0  0
 11 12  1  0  0  0  0
 12 13  1  0  0  0  0
 13 14  1  0  0  0  0
 14 15  1  0  0  0  0
 15 16  1  0  0  0  0
 16 17  2  0  0  0  0
 17 18  1  0  0  0  0
 18 19  2  0  0  0  0
 19 20  1  0  0  0  0
 20 21  1  0  0  0  0
 14 22  1  0  0  0  0
 22 23  2  0  0  0  0
 23 24  1  0  0  0  0
 24 25  2  0  0  0  0
 25 26  1  0  0  0  0
 26 27  3  0  0  0  0
 25 28  1  0  0  0  0
 28 29  2  0  0  0  0
 11 30  1  0  0  0  0
 30 31  1  0  0  0  0
 31 32  1  0  0  0  0
 32 33  1  0  0  0  0
 33 34  1  0  0  0  0
 34 35  1  0  0  0  0
 35 36  2  0  0  0  0
 35 37  1  0  0  0  0
 37 38  1  0  0  0  0
 38 39  1  0  0  0  0
 38 40  1  0  0  0  0
 38 41  1  0  0  0  0
 34 42  1  0  0  0  0
 42 43  1  0  0  0  0
  7  2  1  0  0  0  0
 20 16  1  0  0  0  0
 29 22  1  0  0  0  0
 43 31  1  0  0  0  0
  1 44  1  0  0  0  0
  1 45  1  0  0  0  0
  1 46  1  0  0  0  0
  3 47  1  0  0  0  0
  4 48  1  0  0  0  0
  5 49  1  0  0  0  0
  6 50  1  0  0  0  0
 12 51  1  0  0  0  0
 12 52  1  0  0  0  0
 13 53  1  0  0  0  0
 13 54  1  0  0  0  0
 15 55  1  0  0  0  0
 15 56  1  0  0  0  0
 17 57  1  0  0  0  0
 19 58  1  0  0  0  0
 21 59  1  0  0  0  0
 21 60  1  0  0  0  0
 21 61  1  0  0  0  0
 23 62  1  0  0  0  0
 24 63  1  0  0  0  0
 28 64  1  0  0  0  0
 29 65  1  0  0  0  0
 30 66  1  0  0  0  0
 30 67  1  0  0  0  0
 31 68  1  0  0  0  0
 32 69  1  0  0  0  0
 32 70  1  0  0  0  0
 33 71  1  0  0  0  0
 33 72  1  0  0  0  0
 39 73  1  0  0  0  0
 39 74  1  0  0  0  0
 39 75  1  0  0  0  0
 40 76  1  0  0  0  0
 40 77  1  0  0  0  0
 40 78  1  0  0  0  0
 41 79  1  0  0  0  0
 41 80  1  0  0  0  0
 41 81  1  0  0  0  0
 42 82  1  0  0  0  0
 42 83  1  0  0  0  0
 43 84  1  0  0  0  0
 43 85  1  0  0  0  0
M  END
> <BIOSOLVEIT.HYDE_ESTIMATED_AFFINITY_LOWER_BOUNDARY [nM]>
91665332.517506

> <BIOSOLVEIT.HYDE_ESTIMATED_AFFINITY_UPPER_BOUNDARY [nM]>
9107492753.952116

> <BIOSOLVEIT.HYDE_LIGAND_EFFICIENCY range: ++, +, 0, -, -->
--

> <BIOSOLVEIT.HYDE_LIGAND_LIPOPHILIC_EFFICIENCY range: ++, +, 0, -, -->
--

> <BIOSOLVEIT.INTER_CLASH range: red, yellow, green>
green

> <BIOSOLVEIT.INTRA_CLASH range: red, yellow, green>
green

> <BIOSOLVEIT.LOGP>
5.5954

> <BIOSOLVEIT.MOLECULAR WEIGHT>
606.787

> <BIOSOLVEIT.MOLECULE_CHECKSUM>
LTAuMjIzNzQzOzAuMDA1MjAzMzI=

> <BIOSOLVEIT.TORSION_QUALITY range: red, yellow, green, not rotatable>
red

> <BIOSOLVEIT.TPSA>
111.77

$$$$
3E37_ED5_2
foHydescor03192112263D 1   1.00000     0.00000     0
Hydescorer 1.1.0 fol007
 85 88  0  0  0  0            999 V2000
   24.6176  132.7251   -1.4397 C   0  0  0  0  0  0  0  0  0  0  0  0
   23.7933  131.7984   -2.3186 C   0  0  0  0  0  0  0  0  0  0  0  0
   24.2245  130.4855   -2.4789 C   0  0  0  0  0  0  0  0  0  0  0  0
   23.4879  129.6180   -3.2781 C   0  0  0  0  0  0  0  0  0  0  0  0
   22.3315  130.0659   -3.9081 C   0  0  0  0  0  0  0  0  0  0  0  0
   21.8989  131.3785   -3.7490 C   0  0  0  0  0  0  0  0  0  0  0  0
   22.6363  132.2463   -2.9496 C   0  0  0  0  0  0  0  0  0  0  0  0
   22.0665  133.9250   -2.7571 S   0  0  0  0  0  0  0  0  0  0  0  0
   22.5711  134.4375   -1.4359 O   0  0  0  0  0  0  0  0  0  0  0  0
   22.6301  134.8178   -3.8252 O   0  0  0  0  0  0  0  0  0  0  0  0
   20.3113  134.0177   -2.8272 N   0  0  0  0  0  0  0  0  0  0  0  0
   19.8771  134.4329   -4.1755 C   0  0  0  0  0  0  0  0  0  0  0  0
   18.6228  133.6652   -4.6095 C   0  0  0  0  0  0  0  0  0  0  0  0
   17.4075  134.4484   -4.3411 N   0  0  0  0  0  0  0  0  0  0  0  0
   17.3212  135.8556   -4.7468 C   0  0  0  0  0  0  0  0  0  0  0  0
   17.6686  136.0123   -6.1987 C   0  0  0  0  0  0  0  0  0  0  0  0
   17.1627  135.2703   -7.2252 C   0  0  0  0  0  0  0  0  0  0  0  0
   17.7349  135.7360   -8.3717 N   0  0  0  0  0  0  0  0  0  0  0  0
   18.5547  136.7182   -8.0636 C   0  0  0  0  0  0  0  0  0  0  0  0
   18.5339  136.9223   -6.7190 N   0  0  0  0  0  0  0  0  0  0  0  0
   19.3043  137.9258   -5.9695 C   0  0  0  0  0  0  0  0  0  0  0  0
   16.2521  133.7942   -3.8966 C   0  0  0  0  0  0  0  0  0  0  0  0
   15.8328  132.6351   -4.5417 C   0  0  0  0  0  0  0  0  0  0  0  0
   14.6865  131.9757   -4.1110 C   0  0  0  0  0  0  0  0  0  0  0  0
   13.9728  132.4890   -3.0336 C   0  0  0  0  0  0  0  0  0  0  0  0
   12.7858  131.8151   -2.5777 C   0  0  0  0  0  0  0  0  0  0  0  0
   11.8319  131.2732   -2.2103 N   0  0  0  0  0  0  0  0  0  0  0  0
   14.3883  133.6475   -2.3851 C   0  0  0  0  0  0  0  0  0  0  0  0
   15.5351  134.3045   -2.8192 C   0  0  0  0  0  0  0  0  0  0  0  0
   19.6897  132.7345   -2.4280 C   0  0  0  0  0  0  0  0  0  0  0  0
   19.7471  132.5437   -0.8942 C   0  0  0  0  0  0  0  0  0  0  0  0
   19.0888  131.2361   -0.4787 C   0  0  0  0  0  0  0  0  0  0  0  0
   19.3739  130.9983    0.9960 C   0  0  0  0  0  0  0  0  0  0  0  0
   19.4622  132.3075    1.6492 N   0  0  0  0  0  0  0  0  0  0  0  0
   20.3686  132.5564    2.6909 C   0  0  0  0  0  0  0  0  0  0  0  0
   21.0207  131.6067    3.2036 O   0  0  0  0  0  0  0  0  0  0  0  0
   20.5335  133.8715    3.1565 O   0  0  0  0  0  0  0  0  0  0  0  0
   21.7689  134.5941    3.2564 C   0  0  0  0  0  0  0  0  0  0  0  0
   22.7670  134.1147    2.1852 C   0  0  0  0  0  0  0  0  0  0  0  0
   22.3541  134.2993    4.6461 C   0  0  0  0  0  0  0  0  0  0  0  0
   21.5214  136.1091    3.1300 C   0  0  0  0  0  0  0  0  0  0  0  0
   18.5359  133.2992    1.0980 C   0  0  0  0  0  0  0  0  0  0  0  0
   19.0914  133.7494   -0.2419 C   0  0  0  0  0  0  0  0  0  0  0  0
   24.1913  133.6294   -1.4170 H   0  0  0  0  0  0  0  0  0  0  0  0
   24.6611  132.3537   -0.5123 H   0  0  0  0  0  0  0  0  0  0  0  0
   25.5426  132.8020   -1.8118 H   0  0  0  0  0  0  0  0  0  0  0  0
   25.0566  130.1685   -2.0237 H   0  0  0  0  0  0  0  0  0  0  0  0
   23.7895  128.6723   -3.3997 H   0  0  0  0  0  0  0  0  0  0  0  0
   21.8055  129.4377   -4.4815 H   0  0  0  0  0  0  0  0  0  0  0  0
   21.0667  131.6950   -4.2044 H   0  0  0  0  0  0  0  0  0  0  0  0
   20.6137  134.2509   -4.8269 H   0  0  0  0  0  0  0  0  0  0  0  0
   19.6744  135.4121   -4.1666 H   0  0  0  0  0  0  0  0  0  0  0  0
   18.5752  132.8037   -4.1040 H   0  0  0  0  0  0  0  0  0  0  0  0
   18.6789  133.4739   -5.5894 H   0  0  0  0  0  0  0  0  0  0  0  0
   17.9586  136.3953   -4.1968 H   0  0  0  0  0  0  0  0  0  0  0  0
   16.3891  136.1842   -4.5951 H   0  0  0  0  0  0  0  0  0  0  0  0
   16.4985  134.5263   -7.1510 H   0  0  0  0  0  0  0  0  0  0  0  0
   19.1077  137.2348   -8.7173 H   0  0  0  0  0  0  0  0  0  0  0  0
   19.0921  137.8495   -4.9952 H   0  0  0  0  0  0  0  0  0  0  0  0
   20.2818  137.7696   -6.1110 H   0  0  0  0  0  0  0  0  0  0  0  0
   19.0627  138.8409   -6.2924 H   0  0  0  0  0  0  0  0  0  0  0  0
   16.3555  132.2762   -5.3150 H   0  0  0  0  0  0  0  0  0  0  0  0
   14.3793  131.1424   -4.5705 H   0  0  0  0  0  0  0  0  0  0  0  0
   13.8657  134.0059   -1.6115 H   0  0  0  0  0  0  0  0  0  0  0  0
   15.8421  135.1381   -2.3598 H   0  0  0  0  0  0  0  0  0  0  0  0
   20.1795  131.9826   -2.8695 H   0  0  0  0  0  0  0  0  0  0  0  0
   18.7342  132.7284   -2.7227 H   0  0  0  0  0  0  0  0  0  0  0  0
   20.7070  132.5167   -0.6150 H   0  0  0  0  0  0  0  0  0  0  0  0
   19.4632  130.4832   -1.0201 H   0  0  0  0  0  0  0  0  0  0  0  0
   18.1015  131.2939   -0.6261 H   0  0  0  0  0  0  0  0  0  0  0  0
   20.2382  130.5063    1.1009 H   0  0  0  0  0  0  0  0  0  0  0  0
   18.6341  130.4632    1.4040 H   0  0  0  0  0  0  0  0  0  0  0  0
   23.6203  134.6290    2.2706 H   0  0  0  0  0  0  0  0  0  0  0  0
   22.9509  133.1401    2.3133 H   0  0  0  0  0  0  0  0  0  0  0  0
   22.3776  134.2637    1.2763 H   0  0  0  0  0  0  0  0  0  0  0  0
   23.2200  134.7880    4.7537 H   0  0  0  0  0  0  0  0  0  0  0  0
   21.7110  134.6018    5.3496 H   0  0  0  0  0  0  0  0  0  0  0  0
   22.5123  133.3164    4.7395 H   0  0  0  0  0  0  0  0  0  0  0  0
   22.3918  136.5962    3.2018 H   0  0  0  0  0  0  0  0  0  0  0  0
   21.1017  136.3055    2.2439 H   0  0  0  0  0  0  0  0  0  0  0  0
   20.9101  136.4093    3.8623 H   0  0  0  0  0  0  0  0  0  0  0  0
   18.4645  134.0808    1.7178 H   0  0  0  0  0  0  0  0  0  0  0  0
   17.6323  132.8896    0.9726 H   0  0  0  0  0  0  0  0  0  0  0  0
   19.7676  134.4732   -0.1051 H   0  0  0  0  0  0  0  0  0  0  0  0
   18.3508  134.0901   -0.8212 H   0  0  0  0  0  0  0  0  0  0  0  0
  1  2  1  0  0  0  0
  2  3  2  0  0  0  0
  3  4  1  0  0  0  0
  4  5  2  0  0  0  0
  5  6  1  0  0  0  0
  6  7  2  0  0  0  0
  7  8  1  0  0  0  0
  8  9  2  0  0  0  0
  8 10  2  0  0  0  0
  8 11  1  0  0  0  0
 11 12  1  0  0  0  0
 12 13  1  0  0  0  0
 13 14  1  0  0  0  0
 14 15  1  0  0  0  0
 15 16  1  0  0  0  0
 16 17  2  0  0  0  0
 17 18  1  0  0  0  0
 18 19  2  0  0  0  0
 19 20  1  0  0  0  0
 20 21  1  0  0  0  0
 14 22  1  0  0  0  0
 22 23  2  0  0  0  0
 23 24  1  0  0  0  0
 24 25  2  0  0  0  0
 25 26  1  0  0  0  0
 26 27  3  0  0  0  0
 25 28  1  0  0  0  0
 28 29  2  0  0  0  0
 11 30  1  0  0  0  0
 30 31  1  0  0  0  0
 31 32  1  0  0  0  0
 32 33  1  0  0  0  0
 33 34  1  0  0  0  0
 34 35  1  0  0  0  0
 35 36  2  0  0  0  0
 35 37  1  0  0  0  0
 37 38  1  0  0  0  0
 38 39  1  0  0  0  0
 38 40  1  0  0  0  0
 38 41  1  0  0  0  0
 34 42  1  0  0  0  0
 42 43  1  0  0  0  0
  7  2  1  0  0  0  0
 20 16  1  0  0  0  0
 29 22  1  0  0  0  0
 43 31  1  0  0  0  0
  1 44  1  0  0  0  0
  1 45  1  0  0  0  0
  1 46  1  0  0  0  0
  3 47  1  0  0  0  0
  4 48  1  0  0  0  0
  5 49  1  0  0  0  0
  6 50  1  0  0  0  0
 12 51  1  0  0  0  0
 12 52  1  0  0  0  0
 13 53  1  0  0  0  0
 13 54  1  0  0  0  0
 15 55  1  0  0  0  0
 15 56  1  0  0  0  0
 17 57  1  0  0  0  0
 19 58  1  0  0  0  0
 21 59  1  0  0  0  0
 21 60  1  0  0  0  0
 21 61  1  0  0  0  0
 23 62  1  0  0  0  0
 24 63  1  0  0  0  0
 28 64  1  0  0  0  0
 29 65  1  0  0  0  0
 30 66  1  0  0  0  0
 30 67  1  0  0  0  0
 31 68  1  0  0  0  0
 32 69  1  0  0  0  0
 32 70  1  0  0  0  0
 33 71  1  0  0  0  0
 33 72  1  0  0  0  0
 39 73  1  0  0  0  0
 39 74  1  0  0  0  0
 39 75  1  0  0  0  0
 40 76  1  0  0  0  0
 40 77  1  0  0  0  0
 40 78  1  0  0  0  0
 41 79  1  0  0  0  0
 41 80  1  0  0  0  0
 41 81  1  0  0  0  0
 42 82  1  0  0  0  0
 42 83  1  0  0  0  0
 43 84  1  0  0  0  0
 43 85  1  0  0  0  0
M  END
> <BIOSOLVEIT.HYDE_ESTIMATED_AFFINITY_LOWER_BOUNDARY [nM]>
260377063.110274

> <BIOSOLVEIT.HYDE_ESTIMATED_AFFINITY_UPPER_BOUNDARY [nM]>
25870000691.038349

> <BIOSOLVEIT.HYDE_LIGAND_EFFICIENCY range: ++, +, 0, -, -->
--

> <BIOSOLVEIT.HYDE_LIGAND_LIPOPHILIC_EFFICIENCY range: ++, +, 0, -, -->
--

> <BIOSOLVEIT.INTER_CLASH range: red, yellow, green>
green

> <BIOSOLVEIT.INTRA_CLASH range: red, yellow, green>
red

> <BIOSOLVEIT.LOGP>
5.5954

> <BIOSOLVEIT.MOLECULAR WEIGHT>
606.787

> <BIOSOLVEIT.MOLECULE_CHECKSUM>
Mi4zNjQyNjsw

> <BIOSOLVEIT.TORSION_QUALITY range: red, yellow, green, not rotatable>
red

> <BIOSOLVEIT.TPSA>
111.77

$$$$
3E37_ED5_3
foHydescor03192112263D 1   1.00000     0.00000     0
Hydescorer 1.1.0 fol007
 85 88  0  0  0  0            999 V2000
   24.8623  132.6078   -1.8271 C   0  0  0  0  0  0  0  0  0  0  0  0
   23.8500  131.7307   -2.5460 C   0  0  0  0  0  0  0  0  0  0  0  0
   24.1873  130.4047   -2.7974 C   0  0  0  0  0  0  0  0  0  0  0  0
   23.2784  129.5819   -3.4537 C   0  0  0  0  0  0  0  0  0  0  0  0
   22.0452  130.0871   -3.8522 C   0  0  0  0  0  0  0  0  0  0  0  0
   21.7062  131.4128   -3.6018 C   0  0  0  0  0  0  0  0  0  0  0  0
   22.6160  132.2360   -2.9453 C   0  0  0  0  0  0  0  0  0  0  0  0
   22.1641  133.9323   -2.6328 S   0  0  0  0  0  0  0  0  0  0  0  0
   22.7114  134.3175   -1.2855 O   0  0  0  0  0  0  0  0  0  0  0  0
   22.7810  134.8559   -3.6440 O   0  0  0  0  0  0  0  0  0  0  0  0
   20.4190  134.1491   -2.6769 N   0  0  0  0  0  0  0  0  0  0  0  0
   19.9753  134.4261   -4.0572 C   0  0  0  0  0  0  0  0  0  0  0  0
   18.7247  133.6106   -4.4064 C   0  0  0  0  0  0  0  0  0  0  0  0
   17.5038  134.3998   -4.1856 N   0  0  0  0  0  0  0  0  0  0  0  0
   17.4367  135.8046   -4.6033 C   0  0  0  0  0  0  0  0  0  0  0  0
   17.6877  135.9330   -6.0777 C   0  0  0  0  0  0  0  0  0  0  0  0
   17.1831  135.1173   -7.0474 C   0  0  0  0  0  0  0  0  0  0  0  0
   17.6513  135.5820   -8.2406 N   0  0  0  0  0  0  0  0  0  0  0  0
   18.4087  136.6340   -8.0143 C   0  0  0  0  0  0  0  0  0  0  0  0
   18.4487  136.8858   -6.6782 N   0  0  0  0  0  0  0  0  0  0  0  0
   19.1805  137.9717   -6.0092 C   0  0  0  0  0  0  0  0  0  0  0  0
   16.3310  133.7528   -3.7773 C   0  0  0  0  0  0  0  0  0  0  0  0
   16.0134  132.5104   -4.3168 C   0  0  0  0  0  0  0  0  0  0  0  0
   14.8515  131.8569   -3.9206 C   0  0  0  0  0  0  0  0  0  0  0  0
   14.0199  132.4600   -2.9835 C   0  0  0  0  0  0  0  0  0  0  0  0
   12.8153  131.7932   -2.5643 C   0  0  0  0  0  0  0  0  0  0  0  0
   11.8472  131.2571   -2.2266 N   0  0  0  0  0  0  0  0  0  0  0  0
   14.3333  133.7020   -2.4408 C   0  0  0  0  0  0  0  0  0  0  0  0
   15.4962  134.3527   -2.8400 C   0  0  0  0  0  0  0  0  0  0  0  0
   19.7181  132.9762   -2.1065 C   0  0  0  0  0  0  0  0  0  0  0  0
   20.1009  132.7690   -0.6223 C   0  0  0  0  0  0  0  0  0  0  0  0
   19.7685  134.0335    0.1441 C   0  0  0  0  0  0  0  0  0  0  0  0
   19.5012  133.7072    1.6031 C   0  0  0  0  0  0  0  0  0  0  0  0
   20.3592  132.5715    1.9590 N   0  0  0  0  0  0  0  0  0  0  0  0
   21.4679  132.6944    2.8091 C   0  0  0  0  0  0  0  0  0  0  0  0
   22.2393  131.7135    2.9896 O   0  0  0  0  0  0  0  0  0  0  0  0
   21.7016  133.9180    3.4585 O   0  0  0  0  0  0  0  0  0  0  0  0
   22.7746  134.2138    4.3638 C   0  0  0  0  0  0  0  0  0  0  0  0
   24.1380  134.0100    3.6757 C   0  0  0  0  0  0  0  0  0  0  0  0
   22.6600  133.2293    5.5377 C   0  0  0  0  0  0  0  0  0  0  0  0
   22.6469  135.6510    4.9031 C   0  0  0  0  0  0  0  0  0  0  0  0
   19.9175  131.3030    1.3689 C   0  0  0  0  0  0  0  0  0  0  0  0
   19.3409  131.6026   -0.0053 C   0  0  0  0  0  0  0  0  0  0  0  0
   24.4868  133.5279   -1.7159 H   0  0  0  0  0  0  0  0  0  0  0  0
   25.0618  132.2182   -0.9280 H   0  0  0  0  0  0  0  0  0  0  0  0
   25.7043  132.6541   -2.3646 H   0  0  0  0  0  0  0  0  0  0  0  0
   25.0752  130.0465   -2.5089 H   0  0  0  0  0  0  0  0  0  0  0  0
   23.5114  128.6272   -3.6392 H   0  0  0  0  0  0  0  0  0  0  0  0
   21.3954  129.4909   -4.3237 H   0  0  0  0  0  0  0  0  0  0  0  0
   20.8181  131.7705   -3.8904 H   0  0  0  0  0  0  0  0  0  0  0  0
   20.7102  134.1857   -4.6914 H   0  0  0  0  0  0  0  0  0  0  0  0
   19.7655  135.4000   -4.1440 H   0  0  0  0  0  0  0  0  0  0  0  0
   18.6951  132.7940   -3.8300 H   0  0  0  0  0  0  0  0  0  0  0  0
   18.7692  133.3387   -5.3677 H   0  0  0  0  0  0  0  0  0  0  0  0
   18.1284  136.3282   -4.1059 H   0  0  0  0  0  0  0  0  0  0  0  0
   16.5288  136.1668   -4.3922 H   0  0  0  0  0  0  0  0  0  0  0  0
   16.5839  134.3286   -6.9094 H   0  0  0  0  0  0  0  0  0  0  0  0
   18.8819  137.1662   -8.7163 H   0  0  0  0  0  0  0  0  0  0  0  0
   19.0308  137.9159   -5.0220 H   0  0  0  0  0  0  0  0  0  0  0  0
   20.1576  137.8844   -6.2036 H   0  0  0  0  0  0  0  0  0  0  0  0
   18.8508  138.8533   -6.3471 H   0  0  0  0  0  0  0  0  0  0  0  0
   16.6206  132.0874   -4.9894 H   0  0  0  0  0  0  0  0  0  0  0  0
   14.6169  130.9640   -4.3050 H   0  0  0  0  0  0  0  0  0  0  0  0
   13.7263  134.1244   -1.7677 H   0  0  0  0  0  0  0  0  0  0  0  0
   15.7306  135.2456   -2.4558 H   0  0  0  0  0  0  0  0  0  0  0  0
   19.9703  132.1599   -2.6263 H   0  0  0  0  0  0  0  0  0  0  0  0
   18.7309  133.1214   -2.1722 H   0  0  0  0  0  0  0  0  0  0  0  0
   21.0832  132.5931   -0.5572 H   0  0  0  0  0  0  0  0  0  0  0  0
   18.9548  134.4570   -0.2541 H   0  0  0  0  0  0  0  0  0  0  0  0
   20.5385  134.6686    0.0834 H   0  0  0  0  0  0  0  0  0  0  0  0
   18.5397  133.4626    1.7288 H   0  0  0  0  0  0  0  0  0  0  0  0
   19.7220  134.4962    2.1766 H   0  0  0  0  0  0  0  0  0  0  0  0
   24.8720  134.2205    4.3213 H   0  0  0  0  0  0  0  0  0  0  0  0
   24.2209  133.0598    3.3751 H   0  0  0  0  0  0  0  0  0  0  0  0
   24.2059  134.6172    2.8841 H   0  0  0  0  0  0  0  0  0  0  0  0
   23.3945  133.4051    6.1931 H   0  0  0  0  0  0  0  0  0  0  0  0
   21.7754  133.3494    5.9883 H   0  0  0  0  0  0  0  0  0  0  0  0
   22.7354  132.2926    5.1957 H   0  0  0  0  0  0  0  0  0  0  0  0
   23.4016  135.8395    5.5313 H   0  0  0  0  0  0  0  0  0  0  0  0
   22.6785  136.2972    4.1405 H   0  0  0  0  0  0  0  0  0  0  0  0
   21.7775  135.7492    5.3874 H   0  0  0  0  0  0  0  0  0  0  0  0
   19.2172  130.8849    1.9474 H   0  0  0  0  0  0  0  0  0  0  0  0
   20.6946  130.6796    1.2827 H   0  0  0  0  0  0  0  0  0  0  0  0
   18.3739  131.8422    0.0825 H   0  0  0  0  0  0  0  0  0  0  0  0
   19.4329  130.7965   -0.5898 H   0  0  0  0  0  0  0  0  0  0  0  0
  1  2  1  0  0  0  0
  2  3  2  0  0  0  0
  3  4  1  0  0  0  0
  4  5  2  0  0  0  0
  5  6  1  0  0  0  0
  6  7  2  0  0  0  0
  7  8  1  0  0  0  0
  8  9  2  0  0  0  0
  8 10  2  0  0  0  0
  8 11  1  0  0  0  0
 11 12  1  0  0  0  0
 12 13  1  0  0  0  0
 13 14  1  0  0  0  0
 14 15  1  0  0  0  0
 15 16  1  0  0  0  0
 16 17  2  0  0  0  0
 17 18  1  0  0  0  0
 18 19  2  0  0  0  0
 19 20  1  0  0  0  0
 20 21  1  0  0  0  0
 14 22  1  0  0  0  0
 22 23  2  0  0  0  0
 23 24  1  0  0  0  0
 24 25  2  0  0  0  0
 25 26  1  0  0  0  0
 26 27  3  0  0  0  0
 25 28  1  0  0  0  0
 28 29  2  0  0  0  0
 11 30  1  0  0  0  0
 30 31  1  0  0  0  0
 31 32  1  0  0  0  0
 32 33  1  0  0  0  0
 33 34  1  0  0  0  0
 34 35  1  0  0  0  0
 35 36  2  0  0  0  0
 35 37  1  0  0  0  0
 37 38  1  0  0  0  0
 38 39  1  0  0  0  0
 38 40  1  0  0  0  0
 38 41  1  0  0  0  0
 34 42  1  0  0  0  0
 42 43  1  0  0  0  0
  7  2  1  0  0  0  0
 20 16  1  0  0  0  0
 29 22  1  0  0  0  0
 43 31  1  0  0  0  0
  1 44  1  0  0  0  0
  1 45  1  0  0  0  0
  1 46  1  0  0  0  0
  3 47  1  0  0  0  0
  4 48  1  0  0  0  0
  5 49  1  0  0  0  0
  6 50  1  0  0  0  0
 12 51  1  0  0  0  0
 12 52  1  0  0  0  0
 13 53  1  0  0  0  0
 13 54  1  0  0  0  0
 15 55  1  0  0  0  0
 15 56  1  0  0  0  0
 17 57  1  0  0  0  0
 19 58  1  0  0  0  0
 21 59  1  0  0  0  0
 21 60  1  0  0  0  0
 21 61  1  0  0  0  0
 23 62  1  0  0  0  0
 24 63  1  0  0  0  0
 28 64  1  0  0  0  0
 29 65  1  0  0  0  0
 30 66  1  0  0  0  0
 30 67  1  0  0  0  0
 31 68  1  0  0  0  0
 32 69  1  0  0  0  0
 32 70  1  0  0  0  0
 33 71  1  0  0  0  0
 33 72  1  0  0  0  0
 39 73  1  0  0  0  0
 39 74  1  0  0  0  0
 39 75  1  0  0  0  0
 40 76  1  0  0  0  0
 40 77  1  0  0  0  0
 40 78  1  0  0  0  0
 41 79  1  0  0  0  0
 41 80  1  0  0  0  0
 41 81  1  0  0  0  0
 42 82  1  0  0  0  0
 42 83  1  0  0  0  0
 43 84  1  0  0  0  0
 43 85  1  0  0  0  0
M  END
> <BIOSOLVEIT.HYDE_ESTIMATED_AFFINITY_LOWER_BOUNDARY [nM]>
1218824717.710186

> <BIOSOLVEIT.HYDE_ESTIMATED_AFFINITY_UPPER_BOUNDARY [nM]>
121097441966.550018

> <BIOSOLVEIT.HYDE_LIGAND_EFFICIENCY range: ++, +, 0, -, -->
--

> <BIOSOLVEIT.HYDE_LIGAND_LIPOPHILIC_EFFICIENCY range: ++, +, 0, -, -->
--

> <BIOSOLVEIT.INTER_CLASH range: red, yellow, green>
green

> <BIOSOLVEIT.INTRA_CLASH range: red, yellow, green>
yellow

> <BIOSOLVEIT.LOGP>
5.5954

> <BIOSOLVEIT.MOLECULAR WEIGHT>
606.787

> <BIOSOLVEIT.MOLECULE_CHECKSUM>
Ni4xOTA1NTsw

> <BIOSOLVEIT.TORSION_QUALITY range: red, yellow, green, not rotatable>
red

> <BIOSOLVEIT.TPSA>
111.77

$$$$
2IEJ_S48_1
foHydescor03192112263D 1   1.00000     0.00000     0
Hydescorer 1.1.0 fol007
 68 72  0  0  0  0            999 V2000
   12.6733  136.8249  -11.1077 C   0  0  0  0  0  0  0  0  0  0  0  0
   13.4926  137.0536   -9.9679 O   0  0  0  0  0  0  0  0  0  0  0  0
   13.4524  136.2331   -8.8366 C   0  0  0  0  0  0  0  0  0  0  0  0
   12.6949  135.2254   -8.8006 O   0  0  0  0  0  0  0  0  0  0  0  0
   14.3526  136.5247   -7.6777 C   0  0  0  0  0  0  0  0  0  0  0  0
   14.6321  135.2895   -6.9124 N   0  0  0  0  0  0  0  0  0  0  0  0
   14.4264  135.4059   -5.4599 C   0  0  2  0  0  0  0  0  0  0  0  0
   15.5356  136.2804   -4.8983 C   0  0  0  0  0  0  0  0  0  0  0  0
   15.3153  136.3034   -3.3966 C   0  0  0  0  0  0  0  0  0  0  0  0
   15.4035  137.5021   -2.6983 C   0  0  0  0  0  0  0  0  0  0  0  0
   15.1570  137.4932   -1.3283 C   0  0  0  0  0  0  0  0  0  0  0  0
   15.2045  138.7456   -0.5986 C   0  0  0  0  0  0  0  0  0  0  0  0
   14.3387  138.9474    0.4708 C   0  0  0  0  0  0  0  0  0  0  0  0
   14.3891  140.1510    1.1660 C   0  0  0  0  0  0  0  0  0  0  0  0
   15.2939  141.1401    0.7969 C   0  0  0  0  0  0  0  0  0  0  0  0
   16.1560  140.9295   -0.2745 C   0  0  0  0  0  0  0  0  0  0  0  0
   16.1131  139.7292   -0.9759 C   0  0  0  0  0  0  0  0  0  0  0  0
   14.8573  136.3109   -0.6598 C   0  0  0  0  0  0  0  0  0  0  0  0
   14.7988  135.1267   -1.3883 C   0  0  0  0  0  0  0  0  0  0  0  0
   15.0268  135.1004   -2.7598 C   0  0  0  0  0  0  0  0  0  0  0  0
   14.9599  133.9200   -3.5240 N   0  0  0  0  0  0  0  0  0  0  0  0
   15.4223  132.6209   -3.0054 C   0  0  0  0  0  0  0  0  0  0  0  0
   14.3547  131.5503   -3.1701 C   0  0  0  0  0  0  0  0  0  0  0  0
   13.1922  131.4664   -2.4616 C   0  0  0  0  0  0  0  0  0  0  0  0
   12.5258  130.3690   -2.9204 N   0  0  0  0  0  0  0  0  0  0  0  0
   13.2456  129.8048   -3.8665 C   0  0  0  0  0  0  0  0  0  0  0  0
   14.3889  130.5177   -4.0534 N   0  0  0  0  0  0  0  0  0  0  0  0
   15.4606  130.2250   -5.0168 C   0  0  0  0  0  0  0  0  0  0  0  0
   14.3813  134.0015   -4.8754 C   0  0  0  0  0  0  0  0  0  0  0  0
   16.2297  134.6654   -7.2898 S   0  0  0  0  0  0  0  0  0  0  0  0
   16.2430  134.0271   -8.6510 O   0  0  0  0  0  0  0  0  0  0  0  0
   16.6524  133.6397   -6.2743 O   0  0  0  0  0  0  0  0  0  0  0  0
   17.3957  135.9751   -7.3030 C   0  0  0  0  0  0  0  0  0  0  0  0
   18.3573  136.1798   -6.3615 C   0  0  0  0  0  0  0  0  0  0  0  0
   19.0273  137.2929   -6.7605 N   0  0  0  0  0  0  0  0  0  0  0  0
   20.1628  137.9114   -6.0616 C   0  0  0  0  0  0  0  0  0  0  0  0
   18.4699  137.7375   -7.9198 C   0  0  0  0  0  0  0  0  0  0  0  0
   17.4797  136.9448   -8.2576 N   0  0  0  0  0  0  0  0  0  0  0  0
   12.8597  137.5241  -11.7979 H   0  0  0  0  0  0  0  0  0  0  0  0
   12.8735  135.9212  -11.4862 H   0  0  0  0  0  0  0  0  0  0  0  0
   11.7107  136.8686  -10.8405 H   0  0  0  0  0  0  0  0  0  0  0  0
   13.9101  137.1906   -7.0770 H   0  0  0  0  0  0  0  0  0  0  0  0
   15.2137  136.9029   -8.0174 H   0  0  0  0  0  0  0  0  0  0  0  0
   13.5475  135.8530   -5.2935 H   0  0  0  0  0  0  0  0  0  0  0  0
   15.4755  137.2051   -5.2742 H   0  0  0  0  0  0  0  0  0  0  0  0
   16.4308  135.8904   -5.1139 H   0  0  0  0  0  0  0  0  0  0  0  0
   15.6387  138.3521   -3.1698 H   0  0  0  0  0  0  0  0  0  0  0  0
   13.6881  138.2360    0.7366 H   0  0  0  0  0  0  0  0  0  0  0  0
   13.7705  140.3060    1.9363 H   0  0  0  0  0  0  0  0  0  0  0  0
   15.3250  142.0029    1.3016 H   0  0  0  0  0  0  0  0  0  0  0  0
   16.8064  141.6410   -0.5403 H   0  0  0  0  0  0  0  0  0  0  0  0
   16.7314  139.5743   -1.7464 H   0  0  0  0  0  0  0  0  0  0  0  0
   14.6872  136.3119    0.3257 H   0  0  0  0  0  0  0  0  0  0  0  0
   14.5872  134.2725   -0.9133 H   0  0  0  0  0  0  0  0  0  0  0  0
   15.6409  132.7166   -2.0343 H   0  0  0  0  0  0  0  0  0  0  0  0
   16.2423  132.3432   -3.5059 H   0  0  0  0  0  0  0  0  0  0  0  0
   12.8869  132.0908   -1.7426 H   0  0  0  0  0  0  0  0  0  0  0  0
   12.9912  128.9793   -4.3703 H   0  0  0  0  0  0  0  0  0  0  0  0
   16.1795  130.9154   -4.9357 H   0  0  0  0  0  0  0  0  0  0  0  0
   15.8433  129.3212   -4.8253 H   0  0  0  0  0  0  0  0  0  0  0  0
   15.0878  130.2394   -5.9446 H   0  0  0  0  0  0  0  0  0  0  0  0
   13.4271  133.7054   -4.8316 H   0  0  0  0  0  0  0  0  0  0  0  0
   14.8929  133.3892   -5.4782 H   0  0  0  0  0  0  0  0  0  0  0  0
   18.5337  135.6270   -5.5471 H   0  0  0  0  0  0  0  0  0  0  0  0
   20.4673  138.7177   -6.5688 H   0  0  0  0  0  0  0  0  0  0  0  0
   19.8801  138.1833   -5.1418 H   0  0  0  0  0  0  0  0  0  0  0  0
   20.9137  137.2539   -5.9988 H   0  0  0  0  0  0  0  0  0  0  0  0
   18.7679  138.5419   -8.4336 H   0  0  0  0  0  0  0  0  0  0  0  0
  1  2  1  0  0  0  0
  2  3  1  0  0  0  0
  3  4  2  0  0  0  0
  3  5  1  0  0  0  0
  5  6  1  0  0  0  0
  6  7  1  0  0  0  0
  7  8  1  0  0  0  0
  8  9  1  0  0  0  0
  9 10  2  0  0  0  0
 10 11  1  0  0  0  0
 11 12  1  0  0  0  0
 12 13  2  0  0  0  0
 13 14  1  0  0  0  0
 14 15  2  0  0  0  0
 15 16  1  0  0  0  0
 16 17  2  0  0  0  0
 11 18  2  0  0  0  0
 18 19  1  0  0  0  0
 19 20  2  0  0  0  0
 20 21  1  0  0  0  0
 21 22  1  0  0  0  0
 22 23  1  0  0  0  0
 23 24  2  0  0  0  0
 24 25  1  0  0  0  0
 25 26  2  0  0  0  0
 26 27  1  0  0  0  0
 27 28  1  0  0  0  0
 21 29  1  0  0  0  0
  6 30  1  0  0  0  0
 30 31  2  0  0  0  0
 30 32  2  0  0  0  0
 30 33  1  0  0  0  0
 33 34  2  0  0  0  0
 34 35  1  0  0  0  0
 35 36  1  0  0  0  0
 35 37  1  0  0  0  0
 37 38  2  0  0  0  0
 29  7  1  0  0  0  0
 38 33  1  0  0  0  0
 20  9  1  0  0  0  0
 27 23  1  0  0  0  0
 17 12  1  0  0  0  0
  1 39  1  0  0  0  0
  1 40  1  0  0  0  0
  1 41  1  0  0  0  0
  5 42  1  0  0  0  0
  5 43  1  0  0  0  0
  7 44  1  0  0  0  0
  8 45  1  0  0  0  0
  8 46  1  0  0  0  0
 10 47  1  0  0  0  0
 13 48  1  0  0  0  0
 14 49  1  0  0  0  0
 15 50  1  0  0  0  0
 16 51  1  0  0  0  0
 17 52  1  0  0  0  0
 18 53  1  0  0  0  0
 19 54  1  0  0  0  0
 22 55  1  0  0  0  0
 22 56  1  0  0  0  0
 24 57  1  0  0  0  0
 26 58  1  0  0  0  0
 28 59  1  0  0  0  0
 28 60  1  0  0  0  0
 28 61  1  0  0  0  0
 29 62  1  0  0  0  0
 29 63  1  0  0  0  0
 34 64  1  0  0  0  0
 36 65  1  0  0  0  0
 36 66  1  0  0  0  0
 36 67  1  0  0  0  0
 37 68  1  0  0  0  0
M  END
> <BIOSOLVEIT.HYDE_ESTIMATED_AFFINITY_LOWER_BOUNDARY [nM]>
60117971071.732437

> <BIOSOLVEIT.HYDE_ESTIMATED_AFFINITY_UPPER_BOUNDARY [nM]>
5973075871551.965820

> <BIOSOLVEIT.HYDE_LIGAND_EFFICIENCY range: ++, +, 0, -, -->
--

> <BIOSOLVEIT.HYDE_LIGAND_LIPOPHILIC_EFFICIENCY range: ++, +, 0, -, -->
--

> <BIOSOLVEIT.INTER_CLASH range: red, yellow, green>
green

> <BIOSOLVEIT.INTRA_CLASH range: red, yellow, green>
red

> <BIOSOLVEIT.LOGP>
3.2664

> <BIOSOLVEIT.MOLECULAR WEIGHT>
534.637

> <BIOSOLVEIT.MOLECULE_CHECKSUM>
MTUuODU0Njsw

> <BIOSOLVEIT.TORSION_QUALITY range: red, yellow, green, not rotatable>
green

> <BIOSOLVEIT.TPSA>
102.56

$$$$
2IEJ_S48_2
foHydescor03192112263D 1   1.00000     0.00000     0
Hydescorer 1.1.0 fol007
 68 72  0  0  0  0            999 V2000
   12.7186  136.8203  -11.0735 C   0  0  0  0  0  0  0  0  0  0  0  0
   13.4882  137.0851   -9.9072 O   0  0  0  0  0  0  0  0  0  0  0  0
   13.4719  136.2456   -8.7893 C   0  0  0  0  0  0  0  0  0  0  0  0
   12.7282  135.2274   -8.7615 O   0  0  0  0  0  0  0  0  0  0  0  0
   14.3815  136.5301   -7.6360 C   0  0  0  0  0  0  0  0  0  0  0  0
   14.6957  135.2844   -6.9017 N   0  0  0  0  0  0  0  0  0  0  0  0
   14.4918  135.3600   -5.4463 C   0  0  2  0  0  0  0  0  0  0  0  0
   15.6296  136.1767   -4.8556 C   0  0  0  0  0  0  0  0  0  0  0  0
   15.4078  136.1579   -3.3542 C   0  0  0  0  0  0  0  0  0  0  0  0
   15.5361  137.3293   -2.6167 C   0  0  0  0  0  0  0  0  0  0  0  0
   15.2872  137.2838   -1.2479 C   0  0  0  0  0  0  0  0  0  0  0  0
   15.3767  138.5092   -0.4773 C   0  0  0  0  0  0  0  0  0  0  0  0
   15.8146  139.6754   -1.0956 C   0  0  0  0  0  0  0  0  0  0  0  0
   15.8986  140.8470   -0.3510 C   0  0  0  0  0  0  0  0  0  0  0  0
   15.5491  140.8527    0.9948 C   0  0  0  0  0  0  0  0  0  0  0  0
   15.1126  139.6812    1.6051 C   0  0  0  0  0  0  0  0  0  0  0  0
   15.0251  138.5045    0.8686 C   0  0  0  0  0  0  0  0  0  0  0  0
   14.9458  136.0913   -0.6187 C   0  0  0  0  0  0  0  0  0  0  0  0
   14.8475  134.9344   -1.3859 C   0  0  0  0  0  0  0  0  0  0  0  0
   15.0768  134.9453   -2.7574 C   0  0  0  0  0  0  0  0  0  0  0  0
   14.9705  133.7938   -3.5601 N   0  0  0  0  0  0  0  0  0  0  0  0
   15.3868  132.4630   -3.0843 C   0  0  0  0  0  0  0  0  0  0  0  0
   14.2214  131.4860   -3.0910 C   0  0  0  0  0  0  0  0  0  0  0  0
   13.0365  131.6520   -2.4360 C   0  0  0  0  0  0  0  0  0  0  0  0
   12.2758  130.5534   -2.7066 N   0  0  0  0  0  0  0  0  0  0  0  0
   12.9615  129.7497   -3.4910 C   0  0  0  0  0  0  0  0  0  0  0  0
   14.1761  130.3016   -3.7565 N   0  0  0  0  0  0  0  0  0  0  0  0
   15.2398  129.7265   -4.5933 C   0  0  0  0  0  0  0  0  0  0  0  0
   14.3972  133.9396   -4.9084 C   0  0  0  0  0  0  0  0  0  0  0  0
   16.3079  134.7118   -7.2984 S   0  0  0  0  0  0  0  0  0  0  0  0
   16.3253  134.0738   -8.6597 O   0  0  0  0  0  0  0  0  0  0  0  0
   16.7755  133.7005   -6.2881 O   0  0  0  0  0  0  0  0  0  0  0  0
   17.4310  136.0583   -7.3255 C   0  0  0  0  0  0  0  0  0  0  0  0
   18.4198  136.2744   -6.4153 C   0  0  0  0  0  0  0  0  0  0  0  0
   19.0394  137.4164   -6.8142 N   0  0  0  0  0  0  0  0  0  0  0  0
   20.1800  138.0567   -6.1438 C   0  0  0  0  0  0  0  0  0  0  0  0
   18.4259  137.8665   -7.9427 C   0  0  0  0  0  0  0  0  0  0  0  0
   17.4493  137.0495   -8.2614 N   0  0  0  0  0  0  0  0  0  0  0  0
   12.8765  137.5416  -11.7479 H   0  0  0  0  0  0  0  0  0  0  0  0
   12.9901  135.9384  -11.4588 H   0  0  0  0  0  0  0  0  0  0  0  0
   11.7481  136.7948  -10.8338 H   0  0  0  0  0  0  0  0  0  0  0  0
   13.9339  137.1736   -7.0151 H   0  0  0  0  0  0  0  0  0  0  0  0
   15.2303  136.9329   -7.9783 H   0  0  0  0  0  0  0  0  0  0  0  0
   13.6286  135.8315   -5.2657 H   0  0  0  0  0  0  0  0  0  0  0  0
   15.6021  137.1148   -5.2010 H   0  0  0  0  0  0  0  0  0  0  0  0
   16.5111  135.7633   -5.0835 H   0  0  0  0  0  0  0  0  0  0  0  0
   15.8013  138.1856   -3.0598 H   0  0  0  0  0  0  0  0  0  0  0  0
   16.0659  139.6716   -2.0635 H   0  0  0  0  0  0  0  0  0  0  0  0
   16.2123  141.6909   -0.7863 H   0  0  0  0  0  0  0  0  0  0  0  0
   15.6116  141.6989    1.5241 H   0  0  0  0  0  0  0  0  0  0  0  0
   14.8617  139.6850    2.5731 H   0  0  0  0  0  0  0  0  0  0  0  0
   14.7115  137.6606    1.3038 H   0  0  0  0  0  0  0  0  0  0  0  0
   14.7741  136.0658    0.3661 H   0  0  0  0  0  0  0  0  0  0  0  0
   14.6058  134.0729   -0.9393 H   0  0  0  0  0  0  0  0  0  0  0  0
   15.7378  132.5454   -2.1515 H   0  0  0  0  0  0  0  0  0  0  0  0
   16.1083  132.1140   -3.6823 H   0  0  0  0  0  0  0  0  0  0  0  0
   12.7756  132.4311   -1.8659 H   0  0  0  0  0  0  0  0  0  0  0  0
   12.6394  128.8690   -3.8383 H   0  0  0  0  0  0  0  0  0  0  0  0
   16.0223  130.3489   -4.6121 H   0  0  0  0  0  0  0  0  0  0  0  0
   15.5232  128.8459   -4.2135 H   0  0  0  0  0  0  0  0  0  0  0  0
   14.8971  129.5936   -5.5233 H   0  0  0  0  0  0  0  0  0  0  0  0
   13.4333  133.6754   -4.8748 H   0  0  0  0  0  0  0  0  0  0  0  0
   14.8884  133.3301   -5.5307 H   0  0  0  0  0  0  0  0  0  0  0  0
   18.6434  135.7111   -5.6199 H   0  0  0  0  0  0  0  0  0  0  0  0
   20.4401  138.8825   -6.6441 H   0  0  0  0  0  0  0  0  0  0  0  0
   19.9231  138.3005   -5.2086 H   0  0  0  0  0  0  0  0  0  0  0  0
   20.9529  137.4225   -6.1224 H   0  0  0  0  0  0  0  0  0  0  0  0
   18.6794  138.6904   -8.4495 H   0  0  0  0  0  0  0  0  0  0  0  0
  1  2  1  0  0  0  0
  2  3  1  0  0  0  0
  3  4  2  0  0  0  0
  3  5  1  0  0  0  0
  5  6  1  0  0  0  0
  6  7  1  0  0  0  0
  7  8  1  0  0  0  0
  8  9  1  0  0  0  0
  9 10  2  0  0  0  0
 10 11  1  0  0  0  0
 11 12  1  0  0  0  0
 12 13  2  0  0  0  0
 13 14  1  0  0  0  0
 14 15  2  0  0  0  0
 15 16  1  0  0  0  0
 16 17  2  0  0  0  0
 11 18  2  0  0  0  0
 18 19  1  0  0  0  0
 19 20  2  0  0  0  0
 20 21  1  0  0  0  0
 21 22  1  0  0  0  0
 22 23  1  0  0  0  0
 23 24  2  0  0  0  0
 24 25  1  0  0  0  0
 25 26  2  0  0  0  0
 26 27  1  0  0  0  0
 27 28  1  0  0  0  0
 21 29  1  0  0  0  0
  6 30  1  0  0  0  0
 30 31  2  0  0  0  0
 30 32  2  0  0  0  0
 30 33  1  0  0  0  0
 33 34  2  0  0  0  0
 34 35  1  0  0  0  0
 35 36  1  0  0  0  0
 35 37  1  0  0  0  0
 37 38  2  0  0  0  0
 29  7  1  0  0  0  0
 38 33  1  0  0  0  0
 20  9  1  0  0  0  0
 27 23  1  0  0  0  0
 17 12  1  0  0  0  0
  1 39  1  0  0  0  0
  1 40  1  0  0  0  0
  1 41  1  0  0  0  0
  5 42  1  0  0  0  0
  5 43  1  0  0  0  0
  7 44  1  0  0  0  0
  8 45  1  0  0  0  0
  8 46  1  0  0  0  0
 10 47  1  0  0  0  0
 13 48  1  0  0  0  0
 14 49  1  0  0  0  0
 15 50  1  0  0  0  0
 16 51  1  0  0  0  0
 17 52  1  0  0  0  0
 18 53  1  0  0  0  0
 19 54  1  0  0  0  0
 22 55  1  0  0  0  0
 22 56  1  0  0  0  0
 24 57  1  0  0  0  0
 26 58  1  0  0  0  0
 28 59  1  0  0  0  0
 28 60  1  0  0  0  0
 28 61  1  0  0  0  0
 29 62  1  0  0  0  0
 29 63  1  0  0  0  0
 34 64  1  0  0  0  0
 36 65  1  0  0  0  0
 36 66  1  0  0  0  0
 36 67  1  0  0  0  0
 37 68  1  0  0  0  0
M  END
> <BIOSOLVEIT.HYDE_ESTIMATED_AFFINITY_LOWER_BOUNDARY [nM]>
34999283276.932129

> <BIOSOLVEIT.HYDE_ESTIMATED_AFFINITY_UPPER_BOUNDARY [nM]>
3477385725702.796875

> <BIOSOLVEIT.HYDE_LIGAND_EFFICIENCY range: ++, +, 0, -, -->
--

> <BIOSOLVEIT.HYDE_LIGAND_LIPOPHILIC_EFFICIENCY range: ++, +, 0, -, -->
--

> <BIOSOLVEIT.INTER_CLASH range: red, yellow, green>
green

> <BIOSOLVEIT.INTRA_CLASH range: red, yellow, green>
yellow

> <BIOSOLVEIT.LOGP>
3.2664

> <BIOSOLVEIT.MOLECULAR WEIGHT>
534.637

> <BIOSOLVEIT.MOLECULE_CHECKSUM>
MTQuNTEzNTsw

> <BIOSOLVEIT.TORSION_QUALITY range: red, yellow, green, not rotatable>
green

> <BIOSOLVEIT.TPSA>
102.56

$$$$
2IEJ_S48_3
foHydescor03192112263D 1   1.00000     0.00000     0
Hydescorer 1.1.0 fol007
 68 72  0  0  0  0            999 V2000
   14.7350  138.1451  -10.8490 C   0  0  0  0  0  0  0  0  0  0  0  0
   15.3710  137.9665   -9.5895 O   0  0  0  0  0  0  0  0  0  0  0  0
   15.1116  138.7935   -8.4925 C   0  0  0  0  0  0  0  0  0  0  0  0
   14.2975  139.7519   -8.5890 O   0  0  0  0  0  0  0  0  0  0  0  0
   15.7680  138.5088   -7.1786 C   0  0  0  0  0  0  0  0  0  0  0  0
   15.9347  137.0512   -6.9853 N   0  0  0  0  0  0  0  0  0  0  0  0
   15.5830  136.5600   -5.6259 C   0  0  2  0  0  0  0  0  0  0  0  0
   16.7946  136.7558   -4.7291 C   0  0  0  0  0  0  0  0  0  0  0  0
   16.4038  136.1723   -3.3834 C   0  0  0  0  0  0  0  0  0  0  0  0
   16.6955  136.8640   -2.2135 C   0  0  0  0  0  0  0  0  0  0  0  0
   16.2879  136.3184   -0.9993 C   0  0  0  0  0  0  0  0  0  0  0  0
   16.5499  137.0532    0.2232 C   0  0  0  0  0  0  0  0  0  0  0  0
   15.7015  136.8920    1.3133 C   0  0  0  0  0  0  0  0  0  0  0  0
   15.9581  137.6001    2.4825 C   0  0  0  0  0  0  0  0  0  0  0  0
   17.0491  138.4582    2.5612 C   0  0  0  0  0  0  0  0  0  0  0  0
   17.8924  138.6134    1.4655 C   0  0  0  0  0  0  0  0  0  0  0  0
   17.6440  137.9097    0.2918 C   0  0  0  0  0  0  0  0  0  0  0  0
   15.6288  135.0949   -0.9465 C   0  0  0  0  0  0  0  0  0  0  0  0
   15.3727  134.4208   -2.1366 C   0  0  0  0  0  0  0  0  0  0  0  0
   15.7542  134.9419   -3.3682 C   0  0  0  0  0  0  0  0  0  0  0  0
   15.4955  134.2893   -4.5885 N   0  0  0  0  0  0  0  0  0  0  0  0
   15.5590  132.8264   -4.7244 C   0  0  0  0  0  0  0  0  0  0  0  0
   14.4569  132.1576   -3.9459 C   0  0  0  0  0  0  0  0  0  0  0  0
   13.2050  132.6596   -3.7426 C   0  0  0  0  0  0  0  0  0  0  0  0
   12.5266  131.7437   -2.9943 N   0  0  0  0  0  0  0  0  0  0  0  0
   13.3248  130.7267   -2.7490 C   0  0  0  0  0  0  0  0  0  0  0  0
   14.5337  130.9472   -3.3320 N   0  0  0  0  0  0  0  0  0  0  0  0
   15.7024  130.0554   -3.2987 C   0  0  0  0  0  0  0  0  0  0  0  0
   15.1248  135.1140   -5.7503 C   0  0  0  0  0  0  0  0  0  0  0  0
   17.5444  136.5349   -7.4614 S   0  0  0  0  0  0  0  0  0  0  0  0
   17.6377  136.3966   -8.9551 O   0  0  0  0  0  0  0  0  0  0  0  0
   17.8844  135.2110   -6.8343 O   0  0  0  0  0  0  0  0  0  0  0  0
   18.7276  137.7284   -6.9610 C   0  0  0  0  0  0  0  0  0  0  0  0
   18.4934  138.7502   -6.0926 C   0  0  0  0  0  0  0  0  0  0  0  0
   19.6712  139.4211   -5.9925 N   0  0  0  0  0  0  0  0  0  0  0  0
   19.9176  140.6095   -5.1635 C   0  0  0  0  0  0  0  0  0  0  0  0
   20.5862  138.8041   -6.7892 C   0  0  0  0  0  0  0  0  0  0  0  0
   20.0240  137.7760   -7.3805 N   0  0  0  0  0  0  0  0  0  0  0  0
   15.0622  137.4502  -11.4892 H   0  0  0  0  0  0  0  0  0  0  0  0
   13.7451  138.0565  -10.7381 H   0  0  0  0  0  0  0  0  0  0  0  0
   14.9505  139.0543  -11.2052 H   0  0  0  0  0  0  0  0  0  0  0  0
   15.2006  138.8754   -6.4413 H   0  0  0  0  0  0  0  0  0  0  0  0
   16.6661  138.9480   -7.1579 H   0  0  0  0  0  0  0  0  0  0  0  0
   14.8264  137.1087   -5.2704 H   0  0  0  0  0  0  0  0  0  0  0  0
   17.0088  137.7284   -4.6391 H   0  0  0  0  0  0  0  0  0  0  0  0
   17.5869  136.2731   -5.1022 H   0  0  0  0  0  0  0  0  0  0  0  0
   17.1873  137.7342   -2.2434 H   0  0  0  0  0  0  0  0  0  0  0  0
   14.9167  136.2748    1.2570 H   0  0  0  0  0  0  0  0  0  0  0  0
   15.3538  137.4912    3.2719 H   0  0  0  0  0  0  0  0  0  0  0  0
   17.2278  138.9638    3.4053 H   0  0  0  0  0  0  0  0  0  0  0  0
   18.6769  139.2309    1.5218 H   0  0  0  0  0  0  0  0  0  0  0  0
   18.2480  138.0187   -0.4977 H   0  0  0  0  0  0  0  0  0  0  0  0
   15.3443  134.7069   -0.0699 H   0  0  0  0  0  0  0  0  0  0  0  0
   14.9022  133.5390   -2.1055 H   0  0  0  0  0  0  0  0  0  0  0  0
   16.4418  132.5052   -4.3814 H   0  0  0  0  0  0  0  0  0  0  0  0
   15.4689  132.5845   -5.6905 H   0  0  0  0  0  0  0  0  0  0  0  0
   12.8520  133.5329   -4.0784 H   0  0  0  0  0  0  0  0  0  0  0  0
   13.0802  129.9166   -2.2161 H   0  0  0  0  0  0  0  0  0  0  0  0
   16.4537  130.4710   -3.8115 H   0  0  0  0  0  0  0  0  0  0  0  0
   15.9853  129.9120   -2.3503 H   0  0  0  0  0  0  0  0  0  0  0  0
   15.4630  129.1767   -3.7116 H   0  0  0  0  0  0  0  0  0  0  0  0
   14.1292  135.1026   -5.8443 H   0  0  0  0  0  0  0  0  0  0  0  0
   15.5414  134.7173   -6.5683 H   0  0  0  0  0  0  0  0  0  0  0  0
   17.6348  138.9627   -5.6261 H   0  0  0  0  0  0  0  0  0  0  0  0
   20.8674  140.9022   -5.2742 H   0  0  0  0  0  0  0  0  0  0  0  0
   19.3059  141.3475   -5.4487 H   0  0  0  0  0  0  0  0  0  0  0  0
   19.7470  140.3875   -4.2035 H   0  0  0  0  0  0  0  0  0  0  0  0
   21.5375  139.0894   -6.9058 H   0  0  0  0  0  0  0  0  0  0  0  0
  1  2  1  0  0  0  0
  2  3  1  0  0  0  0
  3  4  2  0  0  0  0
  3  5  1  0  0  0  0
  5  6  1  0  0  0  0
  6  7  1  0  0  0  0
  7  8  1  0  0  0  0
  8  9  1  0  0  0  0
  9 10  2  0  0  0  0
 10 11  1  0  0  0  0
 11 12  1  0  0  0  0
 12 13  2  0  0  0  0
 13 14  1  0  0  0  0
 14 15  2  0  0  0  0
 15 16  1  0  0  0  0
 16 17  2  0  0  0  0
 11 18  2  0  0  0  0
 18 19  1  0  0  0  0
 19 20  2  0  0  0  0
 20 21  1  0  0  0  0
 21 22  1  0  0  0  0
 22 23  1  0  0  0  0
 23 24  2  0  0  0  0
 24 25  1  0  0  0  0
 25 26  2  0  0  0  0
 26 27  1  0  0  0  0
 27 28  1  0  0  0  0
 21 29  1  0  0  0  0
  6 30  1  0  0  0  0
 30 31  2  0  0  0  0
 30 32  2  0  0  0  0
 30 33  1  0  0  0  0
 33 34  2  0  0  0  0
 34 35  1  0  0  0  0
 35 36  1  0  0  0  0
 35 37  1  0  0  0  0
 37 38  2  0  0  0  0
 29  7  1  0  0  0  0
 38 33  1  0  0  0  0
 20  9  1  0  0  0  0
 27 23  1  0  0  0  0
 17 12  1  0  0  0  0
  1 39  1  0  0  0  0
  1 40  1  0  0  0  0
  1 41  1  0  0  0  0
  5 42  1  0  0  0  0
  5 43  1  0  0  0  0
  7 44  1  0  0  0  0
  8 45  1  0  0  0  0
  8 46  1  0  0  0  0
 10 47  1  0  0  0  0
 13 48  1  0  0  0  0
 14 49  1  0  0  0  0
 15 50  1  0  0  0  0
 16 51  1  0  0  0  0
 17 52  1  0  0  0  0
 18 53  1  0  0  0  0
 19 54  1  0  0  0  0
 22 55  1  0  0  0  0
 22 56  1  0  0  0  0
 24 57  1  0  0  0  0
 26 58  1  0  0  0  0
 28 59  1  0  0  0  0
 28 60  1  0  0  0  0
 28 61  1  0  0  0  0
 29 62  1  0  0  0  0
 29 63  1  0  0  0  0
 34 64  1  0  0  0  0
 36 65  1  0  0  0  0
 36 66  1  0  0  0  0
 36 67  1  0  0  0  0
 37 68  1  0  0  0  0
M  END
> <BIOSOLVEIT.HYDE_ESTIMATED_AFFINITY_LOWER_BOUNDARY [nM]>
2660201392.029621

> <BIOSOLVEIT.HYDE_ESTIMATED_AFFINITY_UPPER_BOUNDARY [nM]>
264306736653.532990

> <BIOSOLVEIT.HYDE_LIGAND_EFFICIENCY range: ++, +, 0, -, -->
--

> <BIOSOLVEIT.HYDE_LIGAND_LIPOPHILIC_EFFICIENCY range: ++, +, 0, -, -->
--

> <BIOSOLVEIT.INTER_CLASH range: red, yellow, green>
green

> <BIOSOLVEIT.INTRA_CLASH range: red, yellow, green>
yellow

> <BIOSOLVEIT.LOGP>
3.2664

> <BIOSOLVEIT.MOLECULAR WEIGHT>
534.637

> <BIOSOLVEIT.MOLECULE_CHECKSUM>
OC4xMjU0Mjsw

> <BIOSOLVEIT.TORSION_QUALITY range: red, yellow, green, not rotatable>
yellow

> <BIOSOLVEIT.TPSA>
102.56

$$$$
