@<TRIPOS>MOLECULE
1FPU_PRC
47 50 0 0 0
SMALL
GASTEIGER

@<TRIPOS>ATOM
   1    C       11.4672   61.3980   12.7837 C.ar  1 UNL -0.0431
   2    C       10.4623   60.8391   11.9686 C.ar  1 UNL  0.0268
   3    N       10.5970   59.5806   11.4876 N.ar  1 UNL -0.2640
   4    C       11.6848   58.8106   11.7600 C.ar  1 UNL  0.0362
   5    C       12.7330   59.3111   12.5738 C.ar  1 UNL  0.0187
   6    C       12.6131   60.6203   13.0861 C.ar  1 UNL -0.0497
   7    C       13.8747   58.4691   12.8431 C.ar  1 UNL  0.0773
   8    N       13.7407   57.1204   12.6707 N.ar  1 UNL -0.2127
   9    C       14.7221   56.2477   12.8825 C.ar  1 UNL  0.2272
  10    N       15.9396   56.7270   13.2962 N.ar  1 UNL -0.2213
  11    C       16.1611   58.0510   13.4939 C.ar  1 UNL  0.0330
  12    C       15.1191   58.9664   13.2689 C.ar  1 UNL -0.0171
  13    N       14.5493   54.9245   12.7033 N.pl3 1 UNL -0.3238
  14    C       15.6014   54.0056   12.6487 C.ar  1 UNL  0.0459
  15    C       15.7281   53.0882   13.7444 C.ar  1 UNL -0.0145
  16    C       16.7816   52.1215   13.7495 C.ar  1 UNL  0.0431
  17    C       17.6514   52.0896   12.6784 C.ar  1 UNL -0.0381
  18    C       17.5306   52.9871   11.6072 C.ar  1 UNL -0.0552
  19    C       16.4942   53.9479   11.5672 C.ar  1 UNL -0.0273
  20    C       16.4760   54.8392   10.3441 C.3   1 UNL -0.0377
  21    N       16.9261   51.1692   14.7729 N.am  1 UNL -0.3219
  22    C       16.1595   50.9348   15.8348 C.2   1 UNL  0.2567
  23    C       16.4981   49.8091   16.7076 C.ar  1 UNL  0.0580
  24    C       15.5470   48.7685   16.9265 C.ar  1 UNL -0.0464
  25    C       15.8697   47.6683   17.7539 C.ar  1 UNL -0.0430
  26    C       17.1539   47.6181   18.3526 C.ar  1 UNL  0.0268
  27    N       18.0481   48.6287   18.1237 N.ar  1 UNL -0.2639
  28    C       17.7538   49.7041   17.3280 C.ar  1 UNL  0.0395
  29    O       15.1488   51.5708   16.1153 O.2   1 UNL -0.2689
  30    H       11.3641   62.4196   13.1782 H     1 UNL  0.0639
  31    H        9.5658   61.4271   11.7225 H     1 UNL  0.0840
  32    H       11.7519   57.7935   11.3465 H     1 UNL  0.0847
  33    H       13.4091   61.0376   13.7203 H     1 UNL  0.0631
  34    H       17.1479   58.4047   13.8274 H     1 UNL  0.0842
  35    H       15.2730   60.0448   13.4220 H     1 UNL  0.0662
  36    H       13.5879   54.5693   12.6007 H     1 UNL  0.1697
  37    H       15.0147   53.1285   14.5807 H     1 UNL  0.0667
  38    H       18.4587   51.3425   12.6644 H     1 UNL  0.0645
  39    H       18.2566   52.9425   10.7820 H     1 UNL  0.0627
  40    H       16.4545   55.8930   10.6587 H     1 UNL  0.0280
  41    H       17.3781   54.6545    9.7424 H     1 UNL  0.0280
  42    H       15.5822   54.6178    9.7424 H     1 UNL  0.0280
  43    H       17.7518   50.5594   14.6879 H     1 UNL  0.1698
  44    H       14.5575   48.8224   16.4491 H     1 UNL  0.0632
  45    H       15.1379   46.8661   17.9299 H     1 UNL  0.0639
  46    H       17.4302   46.7712   18.9979 H     1 UNL  0.0840
  47    H       18.5065   50.4913   17.1737 H     1 UNL  0.0848
@<TRIPOS>BOND
    1     2     1 ar
    2     3     2 ar
    3     4     3 ar
    4     5     4 ar
    5     6     5 ar
    6     6     1 ar
    7     7     5  1
    8     8     7 ar
    9     9     8 ar
   10    10     9 ar
   11    11    10 ar
   12    12    11 ar
   13    12     7 ar
   14    13     9  1
   15    14    13  1
   16    15    14 ar
   17    16    15 ar
   18    17    16 ar
   19    18    17 ar
   20    19    14 ar
   21    19    18 ar
   22    20    19  1
   23    21    16  1
   24    22    21 am
   25    23    22  1
   26    24    23 ar
   27    25    24 ar
   28    26    25 ar
   29    27    26 ar
   30    28    23 ar
   31    28    27 ar
   32    29    22  2
   33     1    30  1
   34     2    31  1
   35     4    32  1
   36     6    33  1
   37    11    34  1
   38    12    35  1
   39    13    36  1
   40    15    37  1
   41    17    38  1
   42    18    39  1
   43    20    40  1
   44    20    41  1
   45    20    42  1
   46    21    43  1
   47    24    44  1
   48    25    45  1
   49    26    46  1
   50    28    47  1