@<TRIPOS>MOLECULE
2QOH_P3Y
48 51 0 0 0
SMALL
GASTEIGER

@<TRIPOS>ATOM
   1    N       -4.3659    9.1630   24.5962 N.ar  1 UNL -0.2379
   2    C       -3.6915    8.3132   25.4275 C.ar  1 UNL  0.0372
   3    C       -2.6925    7.4352   24.9336 C.ar  1 UNL  0.0023
   4    C       -2.4276    7.4898   23.5415 C.ar  1 UNL -0.0411
   5    C       -3.1543    8.3940   22.6845 C.ar  1 UNL  0.0273
   6    C       -4.1112    9.2062   23.2490 C.ar  1 UNL  0.1374
   7    C       -3.1195    8.6651   21.2707 C.ar  1 UNL  0.0124
   8    C       -4.1178    9.6655   21.1379 C.ar  1 UNL  0.0112
   9    N       -4.7285   10.0073   22.3211 N.ar  1 UNL -0.3455
  10    C       -2.2718    8.0848   20.1598 C.ar  1 UNL  0.0259
  11    C       -2.1439    6.6727   19.9052 C.ar  1 UNL  0.1263
  12    C       -1.3123    6.2326   18.8153 C.ar  1 UNL -0.0193
  13    C       -0.6380    7.1571   18.0023 C.ar  1 UNL -0.0585
  14    C       -0.7658    8.5325   18.2510 C.ar  1 UNL -0.0614
  15    C       -1.5756    8.9864   19.3181 C.ar  1 UNL -0.0506
  16    O       -2.8457    5.7899   20.7449 O.3   1 UNL -0.4961
  17    C       -1.9513    6.4871   25.8366 C.ar  1 UNL  0.0024
  18    C       -1.7221    5.1218   25.4825 C.ar  1 UNL  0.0347
  19    N       -1.0407    4.2465   26.2978 N.ar  1 UNL -0.2633
  20    C       -0.5570    4.6888   27.5040 C.ar  1 UNL  0.0396
  21    C       -0.7522    6.0331   27.9206 C.ar  1 UNL  0.0584
  22    C       -1.4532    6.9125   27.0663 C.ar  1 UNL -0.0384
  23    C       -0.2237    6.5003   29.2072 C.2   1 UNL  0.2544
  24    O        0.9489    6.8443   29.2964 O.2   1 UNL -0.2690
  25    N       -1.0822    6.5806   30.2920 N.am  1 UNL -0.3447
  26    C       -1.7337    5.4257   30.9514 C.3   1 UNL  0.0091
  27    C       -1.2648    7.9260   30.8798 C.3   1 UNL  0.0091
  28    C       -2.7451    4.3631   20.5674 C.3   1 UNL  0.0775
  29    H       -3.9282    8.3099   26.5017 H     1 UNL  0.0847
  30    H       -1.6576    6.8337   23.1095 H     1 UNL  0.0638
  31    H       -4.3795   10.1262   20.1739 H     1 UNL  0.0823
  32    H       -5.4739   10.7013   22.4751 H     1 UNL  0.1675
  33    H       -1.2038    5.1561   18.6168 H     1 UNL  0.0662
  34    H       -0.0100    6.8040   17.1711 H     1 UNL  0.0624
  35    H       -0.2360    9.2577   17.6158 H     1 UNL  0.0623
  36    H       -1.6671   10.0676   19.4990 H     1 UNL  0.0631
  37    H       -2.1059    4.7552   24.5190 H     1 UNL  0.0847
  38    H       -0.0106    3.9926   28.1572 H     1 UNL  0.0848
  39    H       -1.6093    7.9557   27.3785 H     1 UNL  0.0639
  40    H       -1.6681    5.5420   32.0433 H     1 UNL  0.0457
  41    H       -2.7907    5.3799   30.6504 H     1 UNL  0.0457
  42    H       -1.2262    4.4974   30.6504 H     1 UNL  0.0457
  43    H       -1.2546    7.8511   31.9772 H     1 UNL  0.0457
  44    H       -0.4478    8.5844   30.5496 H     1 UNL  0.0457
  45    H       -2.2277    8.3428   30.5496 H     1 UNL  0.0457
  46    H       -2.7105    3.8727   21.5514 H     1 UNL  0.0669
  47    H       -3.6199    4.0007   20.0076 H     1 UNL  0.0669
  48    H       -1.8281    4.1270   20.0076 H     1 UNL  0.0669
@<TRIPOS>BOND
    1     2     1 ar
    2     3     2 ar
    3     4     3 ar
    4     5     4 ar
    5     6     5 ar
    6     6     1 ar
    7     7     5 ar
    8     8     7 ar
    9     9     8 ar
   10     9     6 ar
   11    10     7  1
   12    11    10 ar
   13    12    11 ar
   14    13    12 ar
   15    14    13 ar
   16    15    14 ar
   17    15    10 ar
   18    16    11  1
   19    17     3  1
   20    18    17 ar
   21    19    18 ar
   22    20    19 ar
   23    21    20 ar
   24    22    17 ar
   25    22    21 ar
   26    23    21  1
   27    24    23  2
   28    25    23 am
   29    26    25  1
   30    27    25  1
   31    28    16  1
   32     2    29  1
   33     4    30  1
   34     8    31  1
   35     9    32  1
   36    12    33  1
   37    13    34  1
   38    14    35  1
   39    15    36  1
   40    18    37  1
   41    20    38  1
   42    22    39  1
   43    26    40  1
   44    26    41  1
   45    26    42  1
   46    27    43  1
   47    27    44  1
   48    27    45  1
   49    28    46  1
   50    28    47  1
   51    28    48  1