@<TRIPOS>MOLECULE
3K5V_STJ
40 42 0 0 0
SMALL
GASTEIGER

@<TRIPOS>ATOM
   1    F       16.6574   38.4080   48.8868 F     1 UNL -0.1323
   2    C       17.1901   38.9340   50.0168 C.3   1 UNL  0.5726
   3    F       16.3232   38.8458   51.0642 F     1 UNL -0.1323
   4    F       18.3557   38.3067   50.3256 F     1 UNL -0.1323
   5    O       17.4520   40.2957   49.7354 O.3   1 UNL -0.4058
   6    C       18.0202   41.1099   50.7193 C.ar  1 UNL  0.1291
   7    C       19.4163   41.3161   50.7818 C.ar  1 UNL -0.0175
   8    C       19.9554   42.1508   51.7649 C.ar  1 UNL -0.0349
   9    C       19.1277   42.7770   52.7011 C.ar  1 UNL  0.0398
  10    C       17.7348   42.5784   52.6216 C.ar  1 UNL -0.0349
  11    C       17.1889   41.7470   51.6361 C.ar  1 UNL -0.0175
  12    N       19.5598   43.6082   53.6760 N.pl3 1 UNL -0.3401
  13    C       20.8281   43.9737   53.9990 C.ar  1 UNL  0.1338
  14    N       21.9229   43.5556   53.3048 N.ar  1 UNL -0.2193
  15    C       23.1732   43.9406   53.6612 C.ar  1 UNL  0.1180
  16    N       23.3515   44.7623   54.7235 N.ar  1 UNL -0.2362
  17    C       22.2975   45.2134   55.4511 C.ar  1 UNL  0.0757
  18    C       20.9952   44.8230   55.0917 C.ar  1 UNL  0.0072
  19    C       22.5470   46.1178   56.5964 C.ar  1 UNL  0.0011
  20    C       23.8266   46.6711   56.7114 C.ar  1 UNL -0.0400
  21    C       24.1542   47.5420   57.7505 C.ar  1 UNL  0.0397
  22    C       23.1789   47.8652   58.7133 C.ar  1 UNL -0.0494
  23    C       21.8883   47.3135   58.6093 C.ar  1 UNL -0.0608
  24    C       21.5682   46.4393   57.5510 C.ar  1 UNL -0.0528
  25    C       25.5794   48.0585   57.7373 C.2   1 UNL  0.2482
  26    O       26.1654   48.0384   56.6671 O.2   1 UNL -0.2696
  27    N       26.2028   48.4814   58.8609 N.am  1 UNL -0.3656
  28    H       20.0788   40.8201   50.0572 H     1 UNL  0.0663
  29    H       21.0422   42.3166   51.8022 H     1 UNL  0.0646
  30    H       17.0706   43.0810   53.3401 H     1 UNL  0.0646
  31    H       16.1003   41.5969   51.5863 H     1 UNL  0.0663
  32    H       18.8198   44.0251   54.2587 H     1 UNL  0.1681
  33    H       24.0425   43.5859   53.0880 H     1 UNL  0.1064
  34    H       20.1252   45.1809   55.6618 H     1 UNL  0.0685
  35    H       24.5924   46.4134   55.9649 H     1 UNL  0.0638
  36    H       23.4244   48.5453   59.5423 H     1 UNL  0.0631
  37    H       21.1242   47.5663   59.3591 H     1 UNL  0.0623
  38    H       20.5578   46.0114   57.4732 H     1 UNL  0.0630
  39    H       27.1723   48.8260   58.8133 H     1 UNL  0.1595
  40    H       25.7080   48.4588   59.7640 H     1 UNL  0.1595
@<TRIPOS>BOND
    1     2     1  1
    2     3     2  1
    3     4     2  1
    4     5     2  1
    5     6     5  1
    6     7     6 ar
    7     8     7 ar
    8     9     8 ar
    9    10     9 ar
   10    11    10 ar
   11    11     6 ar
   12    12     9  1
   13    13    12  1
   14    14    13 ar
   15    15    14 ar
   16    16    15 ar
   17    17    16 ar
   18    18    13 ar
   19    18    17 ar
   20    19    17  1
   21    20    19 ar
   22    21    20 ar
   23    22    21 ar
   24    23    22 ar
   25    24    23 ar
   26    24    19 ar
   27    25    21  1
   28    26    25  2
   29    27    25 am
   30     7    28  1
   31     8    29  1
   32    10    30  1
   33    11    31  1
   34    12    32  1
   35    15    33  1
   36    18    34  1
   37    20    35  1
   38    22    36  1
   39    23    37  1
   40    24    38  1
   41    27    39  1
   42    27    40  1