@<TRIPOS>MOLECULE
3K5V_STI
70 74 0 0 0
SMALL
GASTEIGER

@<TRIPOS>ATOM
   1    C       26.2532   19.8206   58.9603 C.ar  1 UNL -0.0431
   2    C       25.1253   18.9978   59.1072 C.ar  1 UNL -0.0497
   3    C       24.7392   18.1668   58.0383 C.ar  1 UNL  0.0187
   4    C       25.4735   18.1923   56.8361 C.ar  1 UNL  0.0362
   5    N       26.5518   19.0074   56.7154 N.ar  1 UNL -0.2640
   6    C       26.9477   19.7938   57.7466 C.ar  1 UNL  0.0268
   7    C       23.5521   17.2988   58.1927 C.ar  1 UNL  0.0773
   8    C       22.8442   17.1879   59.3877 C.ar  1 UNL -0.0171
   9    C       21.7232   16.3431   59.4287 C.ar  1 UNL  0.0330
  10    N       21.3947   15.6396   58.3320 N.ar  1 UNL -0.2213
  11    C       22.0971   15.7443   57.1824 C.ar  1 UNL  0.2272
  12    N       23.1801   16.5514   57.1291 N.ar  1 UNL -0.2127
  13    N       21.7522   15.0261   56.0854 N.pl3 1 UNL -0.3238
  14    C       20.7086   14.1420   56.0301 C.ar  1 UNL  0.0459
  15    C       20.8415   12.8087   56.4562 C.ar  1 UNL -0.0273
  16    C       19.7445   11.9312   56.3675 C.ar  1 UNL -0.0552
  17    C       18.5163   12.3687   55.8340 C.ar  1 UNL -0.0381
  18    C       18.3670   13.7127   55.4419 C.ar  1 UNL  0.0431
  19    C       19.4696   14.5678   55.5089 C.ar  1 UNL -0.0145
  20    N       17.1305   14.1170   54.8350 N.am  1 UNL -0.3219
  21    C       16.7205   15.3665   54.5331 C.2   1 UNL  0.2552
  22    C       15.4256   15.5213   53.7581 C.ar  1 UNL  0.0397
  23    C       15.4237   16.3606   52.6466 C.ar  1 UNL -0.0490
  24    C       14.2627   16.5199   51.8769 C.ar  1 UNL -0.0526
  25    C       13.1191   15.7965   52.2216 C.ar  1 UNL  0.0062
  26    C       13.1233   14.9347   53.3199 C.ar  1 UNL -0.0526
  27    C       14.2850   14.7795   54.0862 C.ar  1 UNL -0.0490
  28    C       11.8423   15.9737   51.3752 C.3   1 UNL  0.1031
  29    N       10.6244   15.8874   52.2080 N.4   1 UNL -0.3219
  30    C       10.4900   16.9397   53.2461 C.3   1 UNL  0.1273
  31    C        9.2600   16.6398   54.1218 C.3   1 UNL  0.1268
  32    N        8.0538   16.5624   53.2495 N.4   1 UNL -0.3281
  33    C        6.8313   16.3339   54.0680 C.3   1 UNL  0.0668
  34    C        8.1723   15.5243   52.1920 C.3   1 UNL  0.1268
  35    C        9.4243   15.7860   51.3207 C.3   1 UNL  0.1273
  36    O       17.2903   16.3779   54.8905 O.2   1 UNL -0.2689
  37    C       22.1850   12.3223   57.0229 C.3   1 UNL -0.0377
  38    H       26.5837   20.4726   59.7823 H     1 UNL  0.0639
  39    H       24.5507   19.0023   60.0452 H     1 UNL  0.0631
  40    H       25.1725   17.5510   55.9946 H     1 UNL  0.0847
  41    H       27.8387   20.4274   57.6254 H     1 UNL  0.0840
  42    H       23.1568   17.7501   60.2800 H     1 UNL  0.0662
  43    H       21.1222   16.2584   60.3461 H     1 UNL  0.0842
  44    H       22.3156   15.1549   55.2328 H     1 UNL  0.1697
  45    H       19.8473   10.8937   56.7182 H     1 UNL  0.0627
  46    H       17.6786   11.6642   55.7244 H     1 UNL  0.0645
  47    H       19.3685   15.6010   55.1453 H     1 UNL  0.0667
  48    H       16.4743   13.3585   54.6007 H     1 UNL  0.1698
  49    H       16.3402   16.9027   52.3705 H     1 UNL  0.0631
  50    H       14.2528   17.2037   51.0153 H     1 UNL  0.0628
  51    H       12.2127   14.3768   53.5837 H     1 UNL  0.0628
  52    H       14.3010   14.0822   54.9368 H     1 UNL  0.0631
  53    H       11.8717   16.9584   50.8858 H     1 UNL  0.0979
  54    H       11.8081   15.1664   50.6288 H     1 UNL  0.0979
  55    H       10.7088   15.0281   52.7696 H     1 UNL  0.3483
  56    H       11.3931   16.9533   53.8740 H     1 UNL  0.0985
  57    H       10.3663   17.9197   52.7621 H     1 UNL  0.0985
  58    H        9.4018   15.6809   54.6418 H     1 UNL  0.0985
  59    H        9.1300   17.4377   54.8677 H     1 UNL  0.0985
  60    H        7.9768   17.4701   52.7688 H     1 UNL  0.3477
  61    H        7.0907   16.3824   55.1359 H     1 UNL  0.0886
  62    H        6.0850   17.1081   53.8364 H     1 UNL  0.0886
  63    H        6.4150   15.3424   53.8364 H     1 UNL  0.0886
  64    H        8.2587   14.5342   52.6634 H     1 UNL  0.0985
  65    H        7.2776   15.5605   51.5530 H     1 UNL  0.0985
  66    H        9.5596   14.9563   50.6112 H     1 UNL  0.0985
  67    H        9.2969   16.7239   50.7603 H     1 UNL  0.0985
  68    H       22.1460   12.3364   58.1221 H     1 UNL  0.0280
  69    H       22.3795   11.2967   56.6761 H     1 UNL  0.0280
  70    H       22.9910   12.9857   56.6761 H     1 UNL  0.0280
@<TRIPOS>BOND
    1     2     1 ar
    2     3     2 ar
    3     4     3 ar
    4     5     4 ar
    5     6     5 ar
    6     6     1 ar
    7     7     3  1
    8     8     7 ar
    9     9     8 ar
   10    10     9 ar
   11    11    10 ar
   12    12    11 ar
   13    12     7 ar
   14    13    11  1
   15    14    13  1
   16    15    14 ar
   17    16    15 ar
   18    17    16 ar
   19    18    17 ar
   20    19    18 ar
   21    19    14 ar
   22    20    18  1
   23    21    20 am
   24    22    21  1
   25    23    22 ar
   26    24    23 ar
   27    25    24 ar
   28    26    25 ar
   29    27    26 ar
   30    27    22 ar
   31    28    25  1
   32    29    28  1
   33    30    29  1
   34    31    30  1
   35    32    31  1
   36    33    32  1
   37    34    32  1
   38    35    34  1
   39    35    29  1
   40    36    21  2
   41    37    15  1
   42     1    38  1
   43     2    39  1
   44     4    40  1
   45     6    41  1
   46     8    42  1
   47     9    43  1
   48    13    44  1
   49    16    45  1
   50    17    46  1
   51    19    47  1
   52    20    48  1
   53    23    49  1
   54    24    50  1
   55    26    51  1
   56    27    52  1
   57    28    53  1
   58    28    54  1
   59    29    55  1
   60    30    56  1
   61    30    57  1
   62    31    58  1
   63    31    59  1
   64    32    60  1
   65    33    61  1
   66    33    62  1
   67    33    63  1
   68    34    64  1
   69    34    65  1
   70    35    66  1
   71    35    67  1
   72    37    68  1
   73    37    69  1
   74    37    70  1