@<TRIPOS>MOLECULE
3KF4_B90
54 58 0 0 0
SMALL
GASTEIGER

@<TRIPOS>ATOM
   1    N       34.5823   -7.5676  -17.3982 N.ar  1 UNL -0.1830
   2    C       34.8712   -8.0303  -18.6054 C.ar  1 UNL  0.0572
   3    C       35.2833   -9.4153  -18.3973 C.ar  1 UNL  0.0271
   4    C       35.2031   -9.6813  -16.9810 C.ar  1 UNL  0.0656
   5    N       34.7687   -8.5003  -16.4562 N.ar  1 UNL -0.2778
   6    C       35.7076  -10.4404  -19.2702 C.ar  1 UNL -0.0102
   7    C       36.0473  -11.7365  -18.7345 C.ar  1 UNL -0.0430
   8    C       35.9565  -11.9554  -17.3301 C.ar  1 UNL -0.0566
   9    C       35.5323  -10.9205  -16.4645 C.ar  1 UNL -0.0361
  10    C       36.5001  -12.8721  -19.6185 C.3   1 UNL -0.0392
  11    C       35.8037  -10.1825  -20.7389 C.2   1 UNL -0.0372
  12    C       34.7455   -9.8245  -21.4886 C.2   1 UNL  0.0125
  13    N       34.8226   -9.7033  -22.9573 N.ar  1 UNL -0.2901
  14    C       34.0317  -10.3543  -23.8466 C.ar  1 UNL  0.1013
  15    N       34.3357  -10.0443  -25.1120 N.ar  1 UNL -0.2306
  16    C       35.3918   -9.1346  -25.0405 C.ar  1 UNL  0.1506
  17    C       35.7005   -8.9051  -23.6742 C.ar  1 UNL  0.1690
  18    C       36.1510   -8.4341  -25.9648 C.ar  1 UNL  0.1616
  19    N       37.1514   -7.5766  -25.5631 N.ar  1 UNL -0.2168
  20    C       37.3782   -7.4226  -24.2252 C.ar  1 UNL  0.1200
  21    N       36.6894   -8.0616  -23.2675 N.ar  1 UNL -0.2162
  22    N       35.8747   -8.6356  -27.2852 N.pl3 1 UNL -0.3383
  23    C       36.6220   -8.2921  -28.3973 C.ar  1 UNL  0.0396
  24    C       36.0770   -8.6191  -29.6708 C.ar  1 UNL -0.0378
  25    C       36.7696   -8.2876  -30.8536 C.ar  1 UNL -0.0495
  26    C       38.0095   -7.6300  -30.7849 C.ar  1 UNL  0.0113
  27    C       38.5760   -7.3031  -29.5283 C.ar  1 UNL -0.0495
  28    C       37.8886   -7.6311  -28.3378 C.ar  1 UNL -0.0378
  29    P       38.8485   -7.2036  -32.3430 P.3   1 UNL  0.1093
  30    C       40.6558   -6.9256  -32.0142 C.3   1 UNL -0.0070
  31    C       38.2604   -5.5791  -32.9984 C.3   1 UNL -0.0070
  32    O       38.6552   -8.2776  -33.3303 O.2   1 UNL -0.3192
  33    H       34.8130   -7.4872  -19.5602 H     1 UNL  0.0867
  34    H       34.6032   -8.3439  -15.4517 H     1 UNL  0.1901
  35    H       36.2190  -12.9394  -16.9144 H     1 UNL  0.0627
  36    H       35.4644  -11.1015  -15.3816 H     1 UNL  0.0646
  37    H       36.8352  -13.7126  -18.9929 H     1 UNL  0.0280
  38    H       35.6633  -13.1985  -20.2536 H     1 UNL  0.0280
  39    H       37.3319  -12.5332  -20.2536 H     1 UNL  0.0280
  40    H       36.7828  -10.2901  -21.2287 H     1 UNL  0.0645
  41    H       33.7884   -9.6146  -20.9888 H     1 UNL  0.0823
  42    H       33.2336  -11.0552  -23.5607 H     1 UNL  0.1048
  43    H       38.1753   -6.7316  -23.9134 H     1 UNL  0.1064
  44    H       34.9826   -9.1113  -27.4822 H     1 UNL  0.1681
  45    H       35.1073   -9.1348  -29.7329 H     1 UNL  0.0645
  46    H       36.3382   -8.5444  -31.8323 H     1 UNL  0.0631
  47    H       39.5501   -6.7944  -29.4792 H     1 UNL  0.0631
  48    H       38.3293   -7.3771  -27.3625 H     1 UNL  0.0645
  49    H       40.8311   -6.8986  -30.9286 H     1 UNL  0.0313
  50    H       41.2397   -7.7445  -32.4597 H     1 UNL  0.0313
  51    H       40.9666   -5.9691  -32.4597 H     1 UNL  0.0313
  52    H       38.0185   -4.9109  -32.1588 H     1 UNL  0.0313
  53    H       39.0508   -5.1240  -33.6133 H     1 UNL  0.0313
  54    H       37.3618   -5.7354  -33.6133 H     1 UNL  0.0313
@<TRIPOS>BOND
    1     2     1 ar
    2     3     2 ar
    3     4     3 ar
    4     5     4 ar
    5     5     1 ar
    6     6     3 ar
    7     7     6 ar
    8     8     7 ar
    9     9     8 ar
   10     9     4 ar
   11    10     7  1
   12    11     6  1
   13    12    11  2
   14    13    12  1
   15    14    13 ar
   16    15    14 ar
   17    16    15 ar
   18    17    16 ar
   19    17    13 ar
   20    18    16 ar
   21    19    18 ar
   22    20    19 ar
   23    21    20 ar
   24    21    17 ar
   25    22    18  1
   26    23    22  1
   27    24    23 ar
   28    25    24 ar
   29    26    25 ar
   30    27    26 ar
   31    28    23 ar
   32    28    27 ar
   33    29    26  1
   34    30    29  1
   35    31    29  1
   36    32    29  2
   37     2    33  1
   38     5    34  1
   39     8    35  1
   40     9    36  1
   41    10    37  1
   42    10    38  1
   43    10    39  1
   44    11    40  1
   45    12    41  1
   46    14    42  1
   47    20    43  1
   48    22    44  1
   49    24    45  1
   50    25    46  1
   51    27    47  1
   52    28    48  1
   53    30    49  1
   54    30    50  1
   55    30    51  1
   56    31    52  1
   57    31    53  1
   58    31    54  1