@<TRIPOS>MOLECULE
3KFA_B91
66 71 0 0 0
SMALL
GASTEIGER

@<TRIPOS>ATOM
   1    C       18.3345   -9.2137    9.5787 C.ar  1 UNL  0.1690
   2    F       12.7329   -4.7013   18.4421 F     1 UNL -0.1661
   3    N       17.3163   -9.7696   10.3108 N.ar  1 UNL -0.2901
   4    O       16.0664   -7.5404   16.2513 O.2   1 UNL -0.2689
   5    C       18.9596   -8.6734    3.5904 C.3   1 UNL -0.0309
   6    F       11.6920   -6.5308   18.3076 F     1 UNL -0.1661
   7    N       16.3295   -8.6885   18.2015 N.am  1 UNL -0.3219
   8    C       17.2055  -10.0160   11.7413 C.2   1 UNL  0.0125
   9    F       11.6454   -5.4069   20.1455 F     1 UNL -0.1661
  10    N       15.7483   -7.1241   22.6610 N.ar  1 UNL -0.3060
  11    C       18.2144  -10.2352   12.5378 C.2   1 UNL -0.0379
  12    N       15.7697   -7.3632   24.8536 N.ar  1 UNL -0.2417
  13    C       18.0368  -10.4185   13.9776 C.ar  1 UNL -0.0205
  14    N       16.6059   -9.7800    8.2244 N.ar  1 UNL -0.2306
  15    C       18.5065  -11.5888   14.6183 C.ar  1 UNL -0.0438
  16    N       19.5326   -8.7494    9.9741 N.ar  1 UNL -0.2162
  17    C       18.3484  -11.7569   16.0200 C.ar  1 UNL -0.0579
  18    N       19.9208   -8.2056    7.6862 N.ar  1 UNL -0.2171
  19    C       17.7005  -10.7496   16.7758 C.ar  1 UNL -0.0491
  20    N       18.3112   -8.6332    6.0019 N.pl3 1 UNL -0.3654
  21    C       17.2139   -9.5791   16.1378 C.ar  1 UNL  0.0403
  22    C       17.3881   -9.4111   14.7394 C.ar  1 UNL -0.0419
  23    C       19.1696  -12.6836   13.8432 C.3   1 UNL -0.0392
  24    C       16.5102   -8.5216   16.8641 C.2   1 UNL  0.2552
  25    C       15.5626   -7.9209   19.0493 C.ar  1 UNL  0.0437
  26    C       15.9796   -7.8444   20.3588 C.ar  1 UNL -0.0143
  27    C       15.2715   -7.1005   21.3392 C.ar  1 UNL  0.0491
  28    C       14.0998   -6.4209   20.9348 C.ar  1 UNL -0.0256
  29    C       13.6382   -6.4794   19.5870 C.ar  1 UNL  0.0596
  30    C       14.3816   -7.2392   18.6576 C.ar  1 UNL -0.0261
  31    C       12.3919   -5.7702   19.1156 C.3   1 UNL  0.4161
  32    C       17.0558   -7.0004   23.0633 C.ar  1 UNL  0.0316
  33    C       14.9625   -7.3483   23.7724 C.ar  1 UNL  0.0995
  34    C       19.2280   -8.0551    4.9580 C.3   1 UNL  0.0277
  35    C       17.0336   -7.1563   24.4437 C.ar  1 UNL  0.0556
  36    C       16.2708  -10.1175    9.5053 C.ar  1 UNL  0.1013
  37    C       18.1593   -7.1282   25.3801 C.3   1 UNL -0.0207
  38    C       20.2024   -9.1020    4.3855 C.3   1 UNL -0.0309
  39    C       17.8582   -9.2214    8.2503 C.ar  1 UNL  0.1503
  40    C       18.7078   -8.6834    7.3014 C.ar  1 UNL  0.1574
  41    C       20.3154   -8.2437    8.9776 C.ar  1 UNL  0.1199
  42    H       18.1226   -9.3751    3.4601 H     1 UNL  0.0288
  43    H       18.7850   -8.2748    2.5801 H     1 UNL  0.0288
  44    H       16.8248   -9.4829   18.6311 H     1 UNL  0.1698
  45    H       16.1977  -10.0174   12.1822 H     1 UNL  0.0823
  46    H       19.2285  -10.2836   12.1143 H     1 UNL  0.0645
  47    H       18.7267  -12.6634   16.5151 H     1 UNL  0.0626
  48    H       17.5740  -10.8750   17.8613 H     1 UNL  0.0631
  49    H       17.3837   -8.9907    5.7321 H     1 UNL  0.1620
  50    H       17.0203   -8.4997   14.2453 H     1 UNL  0.0638
  51    H       19.6104  -13.4114   14.5404 H     1 UNL  0.0280
  52    H       18.4247  -13.1874   13.2097 H     1 UNL  0.0280
  53    H       19.9612  -12.2568   13.2097 H     1 UNL  0.0280
  54    H       16.8940   -8.3786   20.6564 H     1 UNL  0.0667
  55    H       13.5333   -5.8357   21.6741 H     1 UNL  0.0651
  56    H       14.0399   -7.3036   17.6140 H     1 UNL  0.0651
  57    H       17.9343   -6.8168   22.4273 H     1 UNL  0.0842
  58    H       13.8716   -7.4898   23.7765 H     1 UNL  0.1047
  59    H       19.3340   -7.0355    5.3569 H     1 UNL  0.0528
  60    H       15.3290  -10.5849    9.8287 H     1 UNL  0.1048
  61    H       17.7782   -7.1377   26.4119 H     1 UNL  0.0296
  62    H       18.7950   -8.0108   25.2158 H     1 UNL  0.0296
  63    H       18.7502   -6.2150   25.2158 H     1 UNL  0.0296
  64    H       21.2045   -8.7972    4.0494 H     1 UNL  0.0288
  65    H       20.6138  -10.0602    4.7356 H     1 UNL  0.0288
  66    H       21.3095   -7.8505    9.2366 H     1 UNL  0.1064
@<TRIPOS>BOND
    1     3     1 ar
    2     8     3  1
    3    11     8  2
    4    13    11  1
    5    15    13 ar
    6    16     1 ar
    7    17    15 ar
    8    19    17 ar
    9    21    19 ar
   10    22    21 ar
   11    22    13 ar
   12    23    15  1
   13    24     4  2
   14    24     7 am
   15    24    21  1
   16    25     7  1
   17    26    25 ar
   18    27    26 ar
   19    27    10  1
   20    28    27 ar
   21    29    28 ar
   22    30    29 ar
   23    30    25 ar
   24    31    29  1
   25    31     6  1
   26    31     9  1
   27    31     2  1
   28    32    10 ar
   29    33    12 ar
   30    33    10 ar
   31    34     5  1
   32    34    20  1
   33    35    12 ar
   34    35    32 ar
   35    36    14 ar
   36    36     3 ar
   37    37    35  1
   38    38    34  1
   39    38     5  1
   40    39    14 ar
   41    39     1 ar
   42    40    39 ar
   43    40    20  1
   44    40    18 ar
   45    41    18 ar
   46    41    16 ar
   47     5    42  1
   48     5    43  1
   49     7    44  1
   50     8    45  1
   51    11    46  1
   52    17    47  1
   53    19    48  1
   54    20    49  1
   55    22    50  1
   56    23    51  1
   57    23    52  1
   58    23    53  1
   59    26    54  1
   60    28    55  1
   61    30    56  1
   62    32    57  1
   63    33    58  1
   64    34    59  1
   65    36    60  1
   66    37    61  1
   67    37    62  1
   68    37    63  1
   69    38    64  1
   70    38    65  1
   71    41    66  1