@<TRIPOS>MOLECULE
3MS9_MS9
20 20 0 0 0
SMALL
GASTEIGER

@<TRIPOS>ATOM
   1   Cl        0.7943   59.2911   30.5883 Cl    1 UNL -0.0843
   2    C       -0.9346   59.5847   30.6005 C.ar  1 UNL  0.0426
   3    C       -1.4278   60.7385   31.1734 C.ar  1 UNL -0.0196
   4    C       -2.8317   61.0271   31.2032 C.ar  1 UNL  0.0476
   5    C       -3.7281   60.0524   30.6697 C.ar  1 UNL  0.0826
   6    C       -3.2026   58.8227   30.1460 C.ar  1 UNL -0.0441
   7    C       -1.7945   58.5960   30.0537 C.ar  1 UNL -0.0425
   8    C       -5.2277   60.2303   30.7374 C.2   1 UNL  0.3395
   9    O       -5.6656   61.3515   31.1250 O.2   1 UNL -0.2461
  10    O       -5.9923   59.0986   30.5064 O.3   1 UNL -0.4654
  11    C       -7.2806   59.5018   29.9833 C.3   1 UNL  0.0810
  12    N       -3.2342   62.2031   31.7826 N.2   1 UNL -0.3980
  13    H       -0.7245   61.4570   31.6197 H     1 UNL  0.0661
  14    H       -3.8978   58.0396   29.8092 H     1 UNL  0.0633
  15    H       -1.3922   57.6899   29.5771 H     1 UNL  0.0639
  16    H       -7.9645   59.7158   30.8178 H     1 UNL  0.0670
  17    H       -7.1598   60.4051   29.3673 H     1 UNL  0.0670
  18    H       -7.6963   58.6908   29.3673 H     1 UNL  0.0670
  19    H       -4.2354   62.4420   31.8211 H     1 UNL  0.1562
  20    H       -2.5353   62.8474   32.1792 H     1 UNL  0.1562
@<TRIPOS>BOND
    1     2     1  1
    2     3     2 ar
    3     4     3 ar
    4     5     4 ar
    5     6     5 ar
    6     7     6 ar
    7     7     2 ar
    8     8     5  1
    9     9     8  2
   10    10     8  1
   11    11    10  1
   12    12     4  1
   13     3    13  1
   14     6    14  1
   15     7    15  1
   16    11    16  1
   17    11    17  1
   18    11    18  1
   19    12    19  1
   20    12    20  1