@<TRIPOS>MOLECULE
6HD4_FYW
50 53 0 0 0
SMALL
GASTEIGER

@<TRIPOS>ATOM
   1    C       16.7887   38.8509   49.8495 C.3   1 UNL  0.5726
   2    C       23.1253   47.5013   60.1894 C.3   1 UNL  0.0732
   3    C       21.8109   48.2012   59.7776 C.3   1 UNL -0.0075
   4    C       20.9609   46.9703   59.3671 C.3   1 UNL  0.0218
   5    C       18.7648   42.4717   52.6569 C.ar  1 UNL  0.0413
   6    C       17.3841   42.1934   52.7336 C.ar  1 UNL -0.0348
   7    C       16.7657   41.4938   51.6862 C.ar  1 UNL -0.0175
   8    C       20.6504   43.1095   54.1191 C.2   1 UNL  0.2567
   9    C       21.0098   43.8453   55.3763 C.ar  1 UNL  0.0588
  10    C       21.8599   44.9526   55.3425 C.ar  1 UNL  0.0421
  11    C       21.6523   45.2446   57.7069 C.ar  1 UNL  0.1362
  12    C       20.7087   44.1768   57.7908 C.ar  1 UNL  0.0282
  13    C       20.4363   43.4594   56.6138 C.ar  1 UNL -0.0362
  14    C       20.1646   43.6166   59.0676 C.ar  1 UNL  0.0221
  15    C       21.0432   42.9902   59.9760 C.ar  1 UNL  0.0382
  16    F       16.1453   38.5726   51.0060 F     1 UNL -0.1323
  17    F       18.0368   38.3007   49.9432 F     1 UNL -0.1323
  18    F       16.0743   38.3546   48.8049 F     1 UNL -0.1323
  19    O       16.8545   40.2643   49.6311 O.3   1 UNL -0.4058
  20    C       17.5126   41.0349   50.6008 C.ar  1 UNL  0.1291
  21    C       18.9040   41.2323   50.5755 C.ar  1 UNL -0.0175
  22    C       19.5278   41.9503   51.5931 C.ar  1 UNL -0.0348
  23    N       19.3479   43.1409   53.7436 N.am  1 UNL -0.3219
  24    O       21.5523   42.6249   53.4579 O.2   1 UNL -0.2689
  25    N       22.1934   45.5332   56.5018 N.ar  1 UNL -0.2378
  26    N       20.5694   42.4653   61.1324 N.ar  1 UNL -0.2442
  27    C       19.2479   42.4753   61.4182 C.ar  1 UNL  0.1148
  28    N       18.3839   43.0519   60.5619 N.ar  1 UNL -0.2442
  29    C       18.8018   43.6017   59.3904 C.ar  1 UNL  0.0382
  30    N       21.9621   46.1644   58.6754 N.2   1 UNL -0.3534
  31    C       23.3449   46.5710   58.9782 C.3   1 UNL  0.0453
  32    O       22.9106   46.7148   61.3778 O.3   1 UNL -0.3912
  33    H       23.9620   48.1802   60.4108 H     1 UNL  0.0620
  34    H       21.3586   48.7462   60.6193 H     1 UNL  0.0312
  35    H       21.9214   48.9669   58.9956 H     1 UNL  0.0312
  36    H       20.5563   46.4466   60.2458 H     1 UNL  0.0494
  37    H       20.0735   47.2108   58.7631 H     1 UNL  0.0494
  38    H       16.7985   42.5213   53.6051 H     1 UNL  0.0646
  39    H       15.6825   41.3055   51.7212 H     1 UNL  0.0663
  40    H       22.2459   45.3381   54.3873 H     1 UNL  0.0849
  41    H       19.7687   42.5861   56.6532 H     1 UNL  0.0640
  42    H       22.1169   42.9274   59.7451 H     1 UNL  0.0848
  43    H       19.5018   40.8187   49.7500 H     1 UNL  0.0663
  44    H       20.6158   42.1103   51.5663 H     1 UNL  0.0646
  45    H       18.7182   43.7187   54.3185 H     1 UNL  0.1698
  46    H       18.8802   42.0141   62.3467 H     1 UNL  0.1062
  47    H       18.0681   44.0355   58.6950 H     1 UNL  0.0848
  48    H       23.9707   45.7059   59.2426 H     1 UNL  0.0521
  49    H       23.8714   47.0433   58.1357 H     1 UNL  0.0521
  50    H       23.0641   47.2772   62.1779 H     1 UNL  0.2105
@<TRIPOS>BOND
    1     3     2  1
    2     4     3  1
    3     6     5 ar
    4     7     6 ar
    5     9     8  1
    6    10     9 ar
    7    12    11 ar
    8    13    12 ar
    9    13     9 ar
   10    14    12  1
   11    15    14 ar
   12    16     1  1
   13    17     1  1
   14    18     1  1
   15    19     1  1
   16    20    19  1
   17    20     7 ar
   18    21    20 ar
   19    22    21 ar
   20    22     5 ar
   21    23     8 am
   22    23     5  1
   23    24     8  2
   24    25    11 ar
   25    25    10 ar
   26    26    15 ar
   27    27    26 ar
   28    28    27 ar
   29    29    28 ar
   30    29    14 ar
   31    30     4  1
   32    30    11  1
   33    31    30  1
   34    31     2  1
   35     2    32  1
   36     2    33  1
   37     3    34  1
   38     3    35  1
   39     4    36  1
   40     4    37  1
   41     6    38  1
   42     7    39  1
   43    10    40  1
   44    13    41  1
   45    15    42  1
   46    21    43  1
   47    22    44  1
   48    23    45  1
   49    27    46  1
   50    29    47  1
   51    31    48  1
   52    31    49  1
   53    32    50  1