@<TRIPOS>MOLECULE
6HD6_FYH
47 49 0 0 0
SMALL
GASTEIGER

@<TRIPOS>ATOM
   1    C       17.6874   38.2864   50.2016 C.3   1 UNL  0.5726
   2    C       26.9445   47.2153   59.2466 C.3   1 UNL  0.0960
   3    C       26.2440   46.4717   58.0701 C.3   1 UNL  0.1012
   4    C       19.7641   42.2208   52.8573 C.ar  1 UNL  0.0413
   5    C       18.3652   42.1105   52.7329 C.ar  1 UNL -0.0348
   6    C       17.7706   41.2734   51.7650 C.ar  1 UNL -0.0175
   7    C       21.6671   43.3873   53.9821 C.2   1 UNL  0.2552
   8    C       22.1808   44.2011   55.1577 C.ar  1 UNL  0.0402
   9    C       23.2657   45.0932   55.0223 C.ar  1 UNL -0.0406
  10    C       23.7479   45.8260   56.1311 C.ar  1 UNL  0.0070
  11    C       23.1262   45.6360   57.3764 C.ar  1 UNL -0.0534
  12    C       22.0580   44.7486   57.5291 C.ar  1 UNL -0.0610
  13    C       21.5952   44.0294   56.4225 C.ar  1 UNL -0.0494
  14    C       24.9324   46.8099   55.9528 C.3   1 UNL  0.1029
  15    F       16.8232   38.2536   51.2426 F     1 UNL -0.1323
  16    F       18.7224   37.4724   50.5022 F     1 UNL -0.1323
  17    F       17.1100   37.7731   49.0893 F     1 UNL -0.1323
  18    O       18.0842   39.6442   49.9220 O.3   1 UNL -0.4058
  19    C       18.5873   40.5035   50.9125 C.ar  1 UNL  0.1291
  20    C       19.9771   40.5952   51.0553 C.ar  1 UNL -0.0175
  21    C       20.5518   41.4342   52.0199 C.ar  1 UNL -0.0348
  22    N       20.3496   43.0334   53.8700 N.am  1 UNL -0.3220
  23    O       22.5261   43.0657   53.1694 O.2   1 UNL -0.2689
  24    N       25.5285   47.4259   57.1770 N.4   1 UNL -0.3274
  25    C       24.7162   48.4590   57.8910 C.3   1 UNL  0.1012
  26    C       25.5123   49.1439   59.0309 C.3   1 UNL  0.0960
  27    O       26.0357   48.1257   59.9117 O.3   1 UNL -0.3698
  28    H       27.3049   46.4738   59.9748 H     1 UNL  0.0627
  29    H       27.7820   47.7994   58.8374 H     1 UNL  0.0627
  30    H       27.0030   45.9327   57.4841 H     1 UNL  0.0949
  31    H       25.5079   45.7710   58.4910 H     1 UNL  0.0949
  32    H       17.7198   42.6919   53.4077 H     1 UNL  0.0646
  33    H       16.6754   41.2220   51.6763 H     1 UNL  0.0663
  34    H       23.7433   45.2204   54.0396 H     1 UNL  0.0636
  35    H       23.4882   46.1980   58.2500 H     1 UNL  0.0628
  36    H       21.5842   44.6165   58.5130 H     1 UNL  0.0623
  37    H       20.7627   43.3209   56.5443 H     1 UNL  0.0631
  38    H       25.7362   46.2630   55.4383 H     1 UNL  0.0979
  39    H       24.5012   47.6591   55.4024 H     1 UNL  0.0979
  40    H       20.6287   39.9990   50.3997 H     1 UNL  0.0663
  41    H       21.6468   41.4722   52.1176 H     1 UNL  0.0646
  42    H       19.7135   43.3933   54.5957 H     1 UNL  0.1698
  43    H       26.2708   48.0076   56.7628 H     1 UNL  0.3480
  44    H       24.4029   49.2258   57.1673 H     1 UNL  0.0949
  45    H       23.8481   47.9549   58.3407 H     1 UNL  0.0949
  46    H       26.3426   49.7255   58.6039 H     1 UNL  0.0627
  47    H       24.8518   49.8203   59.5932 H     1 UNL  0.0627
@<TRIPOS>BOND
    1     3     2  1
    2     5     4 ar
    3     6     5 ar
    4     8     7  1
    5     9     8 ar
    6    10     9 ar
    7    11    10 ar
    8    12    11 ar
    9    13    12 ar
   10    13     8 ar
   11    14    10  1
   12    15     1  1
   13    16     1  1
   14    17     1  1
   15    18     1  1
   16    19    18  1
   17    19     6 ar
   18    20    19 ar
   19    21    20 ar
   20    21     4 ar
   21    22     7 am
   22    22     4  1
   23    23     7  2
   24    24    14  1
   25    24     3  1
   26    25    24  1
   27    26    25  1
   28    27    26  1
   29    27     2  1
   30     2    28  1
   31     2    29  1
   32     3    30  1
   33     3    31  1
   34     5    32  1
   35     6    33  1
   36     9    34  1
   37    11    35  1
   38    12    36  1
   39    13    37  1
   40    14    38  1
   41    14    39  1
   42    20    40  1
   43    21    41  1
   44    22    42  1
   45    24    43  1
   46    25    44  1
   47    25    45  1
   48    26    46  1
   49    26    47  1