1JCQ_739
     RDKit          3D

 34 34  0  0  0  0  0  0  0  0999 V2000
    3.8427   -6.8290    3.6064 C   0  0  0  0  0  0  0  0  0  0  0  0
    4.3489   -5.7508    2.6475 C   0  0  0  0  0  0  0  0  0  0  0  0
    4.6069   -4.4602    3.3526 C   0  0  0  0  0  0  0  0  0  0  0  0
    3.3377   -3.9150    4.0356 C   0  0  0  0  0  0  0  0  0  0  0  0
    5.3195   -3.4011    2.6131 C   0  0  0  0  0  0  0  0  0  0  0  0
    4.7299   -2.8579    1.3532 C   0  0  0  0  0  0  0  0  0  0  0  0
    3.3943   -2.8923    1.4074 O   0  0  0  0  0  0  0  0  0  0  0  0
    2.6468   -2.2397    0.4163 C   0  0  0  0  0  0  0  0  0  0  0  0
    1.6069   -1.5055    1.1076 C   0  0  0  0  0  0  0  0  0  0  0  0
    0.6514   -0.6559    0.4102 C   0  0  0  0  0  0  0  0  0  0  0  0
    0.9930    0.6760    0.1307 C   0  0  0  0  0  0  0  0  0  0  0  0
    0.0869    1.5369   -0.4444 C   0  0  0  0  0  0  0  0  0  0  0  0
   -1.1875    1.1460   -0.7741 C   0  0  0  0  0  0  0  0  0  0  0  0
   -1.5308   -0.1566   -0.5064 C   0  0  0  0  0  0  0  0  0  0  0  0
   -0.6198   -1.0408    0.0764 C   0  0  0  0  0  0  0  0  0  0  0  0
    2.1981   -3.2440   -0.5946 C   0  0  0  0  0  0  0  0  0  0  0  0
    2.6322   -4.4162   -0.2880 O   0  0  0  0  0  0  0  0  0  0  0  0
    1.4398   -3.0777   -1.7463 N   0  0  0  0  0  0  0  0  0  0  0  0
    0.7067   -2.9171   -2.8599 C   0  0  0  0  0  0  0  0  0  0  0  0
   -0.4800   -3.7333   -3.0975 C   0  0  0  0  0  0  0  0  0  0  0  0
   -0.6007   -5.1731   -3.2104 C   0  0  0  0  0  0  0  0  0  0  0  0
   -0.2226   -6.2046   -1.8875 S   0  0  0  0  0  6  0  0  0  0  0  0
   -1.1279   -5.8115   -0.4030 C   0  0  0  0  0  0  0  0  0  0  0  0
    1.1614   -6.6446   -1.6729 O   0  0  0  0  0  0  0  0  0  0  0  0
   -0.9248   -7.5865   -2.3046 O   0  0  0  0  0  0  0  0  0  0  0  0
    0.2700   -1.4760   -3.1733 C   0  0  0  0  0  0  0  0  0  0  0  0
   -0.9432   -1.3556   -3.3020 O   0  0  0  0  0  0  0  0  0  0  0  0
    1.1303   -0.4408   -3.2961 O   0  0  0  0  0  1  0  0  0  0  0  0
    6.7328   -3.5746    2.6328 N   0  0  0  0  0  4  0  0  0  0  0  0
    7.5457   -2.4656    2.3048 C   0  0  0  0  0  0  0  0  0  0  0  0
    7.5351   -1.2611    3.1527 C   0  0  0  0  0  0  0  0  0  0  0  0
    8.4830   -0.2831    2.5282 N   0  0  0  0  0  4  0  0  0  0  0  0
    8.0540   -1.3934    4.5566 C   0  0  0  0  0  0  0  0  0  0  0  0
    7.1347   -2.5418    5.5072 S   0  0  0  0  0  1  0  0  0  0  0  0
  1  2  1  0
  2  3  1  0
  3  4  1  0
  3  5  1  0
  5  6  1  0
  6  7  1  0
  7  8  1  0
  8  9  1  0
  9 10  1  0
 10 11  2  0
 11 12  1  0
 12 13  2  0
 13 14  1  0
 14 15  2  0
  8 16  1  0
 16 17  2  0
 16 18  1  0
 18 19  1  0
 19 20  1  0
 20 21  1  0
 21 22  1  0
 22 23  1  0
 22 24  2  0
 22 25  2  0
 19 26  1  0
 26 27  2  0
 26 28  1  0
  5 29  1  0
 29 30  1  0
 30 31  1  0
 31 32  1  0
 31 33  1  0
 33 34  1  0
 15 10  1  0
M  CHG  4  28  -1  29   1  32   1  34  -1
M  END
$$$$
1SA4_JAN
     RDKit          3D

 34 38  0  0  0  0  0  0  0  0999 V2000
   -2.7033   -3.0927    4.0521 C   0  0  0  0  0  0  0  0  0  0  0  0
   -3.5469   -1.9184    4.2635 N   0  0  0  0  0  0  0  0  0  0  0  0
   -3.9817   -1.4887    5.4644 C   0  0  0  0  0  0  0  0  0  0  0  0
   -4.7437   -0.3816    5.3778 N   0  0  0  0  0  0  0  0  0  0  0  0
   -4.7952   -0.1115    4.0593 C   0  0  0  0  0  0  0  0  0  0  0  0
   -4.0727   -1.0637    3.3533 C   0  0  0  0  0  0  0  0  0  0  0  0
   -3.8485   -1.0974    1.8298 C   0  0  0  0  0  0  0  0  0  0  0  0
   -4.0935   -2.4747    1.3329 N   0  0  0  0  0  4  0  0  0  0  0  0
   -4.8447   -0.1202    1.1582 C   0  0  0  0  0  0  0  0  0  0  0  0
   -4.4997    1.2320    0.9201 C   0  0  0  0  0  0  0  0  0  0  0  0
   -5.4082    2.1105    0.3248 C   0  0  0  0  0  0  0  0  0  0  0  0
   -6.6893    1.6730   -0.0127 C   0  0  0  0  0  0  0  0  0  0  0  0
   -7.8257    2.7778   -0.7639 Cl  0  0  0  0  0  0  0  0  0  0  0  0
   -7.0701    0.3596    0.2654 C   0  0  0  0  0  0  0  0  0  0  0  0
   -6.1651   -0.5252    0.8584 C   0  0  0  0  0  0  0  0  0  0  0  0
   -2.4055   -0.6943    1.4492 C   0  0  0  0  0  0  0  0  0  0  0  0
   -1.4632   -0.2276    2.3839 C   0  0  0  0  0  0  0  0  0  0  0  0
   -0.1794    0.1421    1.9846 C   0  0  0  0  0  0  0  0  0  0  0  0
    0.2026    0.1160    0.6236 C   0  0  0  0  0  0  0  0  0  0  0  0
   -0.7685   -0.2737   -0.3374 C   0  0  0  0  0  0  0  0  0  0  0  0
   -2.0347   -0.7174    0.0942 C   0  0  0  0  0  0  0  0  0  0  0  0
   -0.4411   -0.2176   -1.7102 C   0  0  0  0  0  0  0  0  0  0  0  0
   -1.4405   -0.4560   -2.7803 C   0  0  0  0  0  0  0  0  0  0  0  0
   -1.2282   -1.4579   -3.7409 C   0  0  0  0  0  0  0  0  0  0  0  0
   -2.1751   -1.6809   -4.7454 C   0  0  0  0  0  0  0  0  0  0  0  0
   -3.3363   -0.9044   -4.8006 C   0  0  0  0  0  0  0  0  0  0  0  0
   -3.5494    0.1047   -3.8557 C   0  0  0  0  0  0  0  0  0  0  0  0
   -5.0104    1.0740   -3.9156 Cl  0  0  0  0  0  0  0  0  0  0  0  0
   -2.5993    0.3371   -2.8564 C   0  0  0  0  0  0  0  0  0  0  0  0
    0.8535    0.1380   -2.0827 C   0  0  0  0  0  0  0  0  0  0  0  0
    1.8003    0.4732   -1.1181 C   0  0  0  0  0  0  0  0  0  0  0  0
    2.9581    0.7914   -1.5062 O   0  0  0  0  0  0  0  0  0  0  0  0
    1.4777    0.4698    0.2189 N   0  0  0  0  0  0  0  0  0  0  0  0
    2.5021    0.8483    1.2143 C   0  0  0  0  0  0  0  0  0  0  0  0
  1  2  1  0
  2  3  1  0
  3  4  2  0
  4  5  1  0
  5  6  2  0
  6  7  1  0
  7  8  1  0
  7  9  1  0
  9 10  2  0
 10 11  1  0
 11 12  2  0
 12 13  1  0
 12 14  1  0
 14 15  2  0
  7 16  1  0
 16 17  2  0
 17 18  1  0
 18 19  2  0
 19 20  1  0
 20 21  2  0
 20 22  1  0
 22 23  1  0
 23 24  2  0
 24 25  1  0
 25 26  2  0
 26 27  1  0
 27 28  1  0
 27 29  2  0
 22 30  2  0
 30 31  1  0
 31 32  2  0
 31 33  1  0
 33 34  1  0
  6  2  1  0
 15  9  1  0
 21 16  1  0
 29 23  1  0
 33 19  1  0
M  CHG  1   8   1
M  END
$$$$
1MZC_BNE
     RDKit          3D

 35 38  0  0  0  0  0  0  0  0999 V2000
   -0.5933    0.2703   -3.4261 C   0  0  0  0  0  0  0  0  0  0  0  0
    0.0733    0.4690   -2.0547 C   0  0  0  0  0  0  0  0  0  0  0  0
   -0.9005    0.7989   -0.8658 C   0  0  0  0  0  0  0  0  0  0  0  0
   -1.9756    1.7751   -1.4260 C   0  0  0  0  0  0  0  0  0  0  0  0
   -1.6101    3.1048   -1.7427 C   0  0  0  0  0  0  0  0  0  0  0  0
   -2.5241    3.9877   -2.3189 C   0  0  0  0  0  0  0  0  0  0  0  0
   -3.8138    3.5604   -2.6246 C   0  0  0  0  0  0  0  0  0  0  0  0
   -4.1967    2.2424   -2.3731 C   0  0  0  0  0  0  0  0  0  0  0  0
   -5.4879    1.8372   -2.7427 O   0  0  0  0  0  0  0  0  0  0  0  0
   -6.2258    0.8140   -2.1249 C   0  0  0  0  0  0  0  0  0  0  0  0
   -6.1193    0.5701   -0.7433 C   0  0  0  0  0  0  0  0  0  0  0  0
   -6.8455   -0.4736   -0.1296 C   0  0  0  0  0  0  0  0  0  0  0  0
   -6.7541   -0.7613    1.3787 C   0  0  0  0  0  0  0  0  0  0  0  0
   -8.0145   -0.1503    2.0359 C   0  0  0  0  0  0  0  0  0  0  0  0
   -5.5636   -0.1419    1.9990 N   0  0  0  0  0  4  0  0  0  0  0  0
   -6.6899   -2.2784    1.6137 C   0  0  0  0  0  0  0  0  0  0  0  0
   -7.5557   -3.0350    2.3897 C   0  0  0  0  0  0  0  0  0  0  0  0
   -7.1673   -4.3247    2.3816 N   0  0  0  0  0  0  0  0  0  0  0  0
   -6.0695   -4.3406    1.6009 C   0  0  0  0  0  0  0  0  0  0  0  0
   -5.7592   -3.1242    1.1114 N   0  0  0  0  0  0  0  0  0  0  0  0
   -4.5620   -2.8245    0.3281 C   0  0  0  0  0  0  0  0  0  0  0  0
   -7.7401   -1.2173   -0.9274 C   0  0  0  0  0  0  0  0  0  0  0  0
   -7.8705   -0.9591   -2.2922 C   0  0  0  0  0  0  0  0  0  0  0  0
   -7.1173    0.0520   -2.8936 C   0  0  0  0  0  0  0  0  0  0  0  0
   -7.2606    0.2986   -4.3064 C   0  0  0  0  0  0  0  0  0  0  0  0
   -7.3754    0.4968   -5.4407 N   0  0  0  0  0  0  0  0  0  0  0  0
   -3.2690    1.3453   -1.8119 C   0  0  0  0  0  0  0  0  0  0  0  0
   -1.5467   -0.5165   -0.2987 C   0  0  0  0  0  0  0  0  0  0  0  0
   -0.8012   -1.2379    0.8485 C   0  0  0  0  0  0  0  0  0  0  0  0
    0.6715   -1.5636    0.5702 C   0  0  0  0  0  0  0  0  0  0  0  0
    1.6410   -0.3554    0.5508 C   0  0  0  0  0  0  0  0  0  0  0  0
    1.0233    0.9254    0.9419 N   0  0  0  0  0  0  0  0  0  0  0  0
    1.6216    1.6862    2.0483 C   0  0  0  0  0  0  0  0  0  0  0  0
   -0.1608    1.4801    0.3078 C   0  0  0  0  0  0  0  0  0  0  0  0
   -0.6908    2.4957    0.8430 O   0  0  0  0  0  0  0  0  0  0  0  0
  1  2  1  0
  2  3  1  0
  3  4  1  0
  4  5  2  0
  5  6  1  0
  6  7  2  0
  7  8  1  0
  8  9  1  0
  9 10  1  0
 10 11  2  0
 11 12  1  0
 12 13  1  0
 13 14  1  0
 13 15  1  0
 13 16  1  0
 16 17  2  0
 17 18  1  0
 18 19  2  0
 19 20  1  0
 20 21  1  0
 12 22  2  0
 22 23  1  0
 23 24  2  0
 24 25  1  0
 25 26  3  0
  8 27  2  0
  3 28  1  0
 28 29  1  0
 29 30  1  0
 30 31  1  0
 31 32  1  0
 32 33  1  0
 32 34  1  0
 34 35  2  0
 34  3  1  0
 27  4  1  0
 24 10  1  0
 20 16  1  0
M  CHG  1  15   1
M  END
$$$$
1LD7_U66
     RDKit          3D

 34 39  0  0  0  0  0  0  0  0999 V2000
   17.9923  128.2568   -3.0594 N   0  0  0  0  0  0  0  0  0  0  0  0
   18.4690  129.3055   -3.1708 C   0  0  0  0  0  0  0  0  0  0  0  0
   19.0756  130.6412   -3.3126 C   0  0  0  0  0  0  0  0  0  0  0  0
   20.3331  130.7495   -2.4107 C   0  0  0  0  0  0  0  0  0  0  0  0
   19.9863  131.2323   -1.0287 C   0  0  0  0  0  0  0  0  0  0  0  0
   19.1459  132.2698   -0.8842 C   0  0  0  0  0  0  0  0  0  0  0  0
   18.5343  132.8718   -2.1287 C   0  0  0  0  0  0  0  0  0  0  0  0
   18.0042  131.7530   -3.0513 C   0  0  0  0  0  0  0  0  0  0  0  0
   17.5723  132.2918   -4.3057 O   0  0  0  0  0  0  0  0  0  0  0  0
   16.4360  133.0969   -4.4299 C   0  0  0  0  0  0  0  0  0  0  0  0
   15.2341  132.5412   -4.8758 C   0  0  0  0  0  0  0  0  0  0  0  0
   14.0937  133.3391   -5.0027 C   0  0  0  0  0  0  0  0  0  0  0  0
   14.1388  134.6992   -4.6563 C   0  0  0  0  0  0  0  0  0  0  0  0
   12.9940  135.5004   -4.7783 C   0  0  0  0  0  0  0  0  0  0  0  0
   13.0394  136.8498   -4.4238 C   0  0  0  0  0  0  0  0  0  0  0  0
   14.2165  137.4072   -3.9211 C   0  0  0  0  0  0  0  0  0  0  0  0
   15.3684  136.6248   -3.7747 C   0  0  0  0  0  0  0  0  0  0  0  0
   15.3482  135.2665   -4.1797 C   0  0  0  0  0  0  0  0  0  0  0  0
   16.5016  134.4606   -4.1265 C   0  0  0  0  0  0  0  0  0  0  0  0
   16.5279  137.2100   -3.1628 N   0  0  0  0  0  0  0  0  0  0  0  0
   17.4997  137.9943   -3.9043 C   0  0  0  0  0  0  0  0  0  0  0  0
   18.7225  138.1255   -2.9785 C   0  0  0  0  0  0  0  0  0  0  0  0
   18.5925  137.0043   -1.9271 C   0  0  0  0  0  0  0  0  0  0  0  0
   19.0598  137.4426   -0.5917 N   0  0  0  0  0  4  0  0  0  0  0  0
   19.2141  136.3444    0.3858 C   0  0  0  0  0  0  0  0  0  0  0  0
   20.3747  135.3913    0.0430 C   0  0  0  0  0  0  0  0  0  0  0  0
   20.5700  134.3569    1.1156 C   0  0  0  0  0  0  0  0  0  0  0  0
   21.5148  134.4134    2.1168 C   0  0  0  0  0  0  0  0  0  0  0  0
   21.4085  133.3173    2.8943 N   0  0  0  0  0  0  0  0  0  0  0  0
   20.3926  132.6143    2.3503 C   0  0  0  0  0  0  0  0  0  0  0  0
   19.8585  133.2198    1.2701 N   0  0  0  0  0  0  0  0  0  0  0  0
   18.7182  132.7293    0.4894 C   0  0  0  0  0  0  0  0  0  0  0  0
   17.1373  136.6980   -1.9907 C   0  0  0  0  0  0  0  0  0  0  0  0
   16.5193  135.9709   -1.1682 O   0  0  0  0  0  0  0  0  0  0  0  0
  1  2  3  0
  2  3  1  0
  3  4  1  0
  4  5  1  0
  5  6  2  0
  6  7  1  0
  7  8  1  0
  8  9  1  0
  9 10  1  0
 10 11  2  0
 11 12  1  0
 12 13  2  0
 13 14  1  0
 14 15  2  0
 15 16  1  0
 16 17  2  0
 17 18  1  0
 18 19  2  0
 17 20  1  0
 20 21  1  0
 21 22  1  0
 22 23  1  0
 23 24  1  0
 24 25  1  0
 25 26  1  0
 26 27  1  0
 27 28  2  0
 28 29  1  0
 29 30  2  0
 30 31  1  0
 31 32  1  0
 23 33  1  0
 33 34  2  0
  8  3  1  0
 19 10  1  0
 33 20  1  0
 32  6  1  0
 18 13  1  0
 31 27  1  0
M  CHG  1  24   1
M  END
$$$$
1S63_778
     RDKit          3D

 29 32  0  0  0  0  0  0  0  0999 V2000
    2.0318   -1.9736    1.3629 N   0  0  0  0  0  0  0  0  0  0  0  0
    1.2862   -1.2496    0.8539 C   0  0  0  0  0  0  0  0  0  0  0  0
    0.3584   -0.3483    0.2228 C   0  0  0  0  0  0  0  0  0  0  0  0
    0.7384    0.9712   -0.0502 C   0  0  0  0  0  0  0  0  0  0  0  0
   -0.1718    1.8567   -0.6345 C   0  0  0  0  0  0  0  0  0  0  0  0
   -1.4733    1.4307   -0.9480 C   0  0  0  0  0  0  0  0  0  0  0  0
   -2.4710    2.3933   -1.5330 C   0  0  0  0  0  0  0  0  0  0  0  0
   -3.6719    2.4778   -0.6966 N   0  0  0  0  0  0  0  0  0  0  0  0
   -4.9077    2.0650   -1.0443 C   0  0  0  0  0  0  0  0  0  0  0  0
   -5.8301    2.3204   -0.0926 N   0  0  0  0  0  0  0  0  0  0  0  0
   -5.1376    2.9223    0.8951 C   0  0  0  0  0  0  0  0  0  0  0  0
   -3.8116    3.0205    0.5313 C   0  0  0  0  0  0  0  0  0  0  0  0
   -2.7071    3.6066    1.3773 C   0  0  0  0  0  0  0  0  0  0  0  0
   -2.0779    2.5911    2.2584 N   0  0  0  0  0  4  0  0  0  0  0  0
   -0.7981    3.1092    2.7890 C   0  0  0  0  0  0  0  0  0  0  0  0
   -0.0348    2.0095    3.5360 C   0  0  0  0  0  0  0  0  0  0  0  0
   -0.8769    1.3711    4.5538 N   0  0  0  0  0  0  0  0  0  0  0  0
   -0.2586    0.6844    5.6610 C   0  0  0  0  0  0  0  0  0  0  0  0
    0.8747   -0.1245    5.4606 C   0  0  0  0  0  0  0  0  0  0  0  0
    1.4739   -0.7806    6.5399 C   0  0  0  0  0  0  0  0  0  0  0  0
    0.9526   -0.6330    7.8275 C   0  0  0  0  0  0  0  0  0  0  0  0
   -0.1698    0.1734    8.0396 C   0  0  0  0  0  0  0  0  0  0  0  0
   -0.8192    0.3646    9.6578 Cl  0  0  0  0  0  0  0  0  0  0  0  0
   -0.7724    0.8313    6.9614 C   0  0  0  0  0  0  0  0  0  0  0  0
   -2.2991    1.2864    4.3408 C   0  0  0  0  0  0  0  0  0  0  0  0
   -2.9967    0.4643    4.9953 O   0  0  0  0  0  0  0  0  0  0  0  0
   -2.9766    2.2176    3.3743 C   0  0  0  0  0  0  0  0  0  0  0  0
   -1.8397    0.0979   -0.6982 C   0  0  0  0  0  0  0  0  0  0  0  0
   -0.9300   -0.7851   -0.1087 C   0  0  0  0  0  0  0  0  0  0  0  0
  1  2  3  0
  2  3  1  0
  3  4  2  0
  4  5  1  0
  5  6  2  0
  6  7  1  0
  7  8  1  0
  8  9  1  0
  9 10  2  0
 10 11  1  0
 11 12  2  0
 12 13  1  0
 13 14  1  0
 14 15  1  0
 15 16  1  0
 16 17  1  0
 17 18  1  0
 18 19  2  0
 19 20  1  0
 20 21  2  0
 21 22  1  0
 22 23  1  0
 22 24  2  0
 17 25  1  0
 25 26  2  0
 25 27  1  0
  6 28  1  0
 28 29  2  0
 29  3  1  0
 12  8  1  0
 27 14  1  0
 24 18  1  0
M  CHG  1  14   1
M  END
$$$$
3E37_ED5
     RDKit          3D

 43 46  0  0  0  0  0  0  0  0999 V2000
    3.5050   -4.7285   -0.9103 C   0  0  0  0  0  0  0  0  0  0  0  0
    2.4706   -3.8194   -1.5203 C   0  0  0  0  0  0  0  0  0  0  0  0
    2.8344   -2.4892   -1.7979 C   0  0  0  0  0  0  0  0  0  0  0  0
    1.9250   -1.6090   -2.3839 C   0  0  0  0  0  0  0  0  0  0  0  0
    0.6388   -2.0405   -2.6973 C   0  0  0  0  0  0  0  0  0  0  0  0
    0.2615   -3.3580   -2.4392 C   0  0  0  0  0  0  0  0  0  0  0  0
    1.1645   -4.2664   -1.8604 C   0  0  0  0  0  0  0  0  0  0  0  0
    0.6239   -5.9496   -1.6510 S   0  0  0  0  0  6  0  0  0  0  0  0
    1.8018   -6.8773   -1.7669 O   0  0  0  0  0  0  0  0  0  0  0  0
   -0.2999   -6.2732   -2.7915 O   0  0  0  0  0  0  0  0  0  0  0  0
   -0.2594   -6.2472   -0.1597 N   0  0  0  0  0  0  0  0  0  0  0  0
   -0.7216   -5.0281    0.5345 C   0  0  0  0  0  0  0  0  0  0  0  0
    0.3431   -4.3648    1.4284 C   0  0  0  0  0  0  0  0  0  0  0  0
   -0.1737   -3.1084    1.9818 N   0  0  0  0  0  0  0  0  0  0  0  0
   -0.5917   -3.0128    3.3855 C   0  0  0  0  0  0  0  0  0  0  0  0
   -2.0437   -2.6405    3.4733 C   0  0  0  0  0  0  0  0  0  0  0  0
   -3.1071   -3.4929    3.2717 C   0  0  0  0  0  0  0  0  0  0  0  0
   -4.2593   -2.7969    3.3582 N   0  0  0  0  0  0  0  0  0  0  0  0
   -3.8699   -1.5276    3.6046 C   0  0  0  0  0  0  0  0  0  0  0  0
   -2.5301   -1.4006    3.6704 N   0  0  0  0  0  0  0  0  0  0  0  0
   -1.7844   -0.1738    3.9361 C   0  0  0  0  0  0  0  0  0  0  0  0
   -0.1004   -1.9140    1.1914 C   0  0  0  0  0  0  0  0  0  0  0  0
    1.0810   -1.1613    1.1681 C   0  0  0  0  0  0  0  0  0  0  0  0
    1.1417    0.0277    0.4356 C   0  0  0  0  0  0  0  0  0  0  0  0
    0.0223    0.4666   -0.2835 C   0  0  0  0  0  0  0  0  0  0  0  0
    0.0894    1.6825   -1.0504 C   0  0  0  0  0  0  0  0  0  0  0  0
    0.1437    2.6598   -1.6676 N   0  0  0  0  0  0  0  0  0  0  0  0
   -1.1583   -0.2872   -0.2647 C   0  0  0  0  0  0  0  0  0  0  0  0
   -1.2194   -1.4740    0.4711 C   0  0  0  0  0  0  0  0  0  0  0  0
    0.3633   -7.2599    0.7142 C   0  0  0  0  0  0  0  0  0  0  0  0
    0.0541   -8.6855    0.2115 C   0  0  0  0  0  0  0  0  0  0  0  0
   -1.4582   -8.9734    0.2631 C   0  0  0  0  0  0  0  0  0  0  0  0
   -1.7633  -10.3964   -0.2135 C   0  0  0  0  0  0  0  0  0  0  0  0
   -0.9443  -11.3756    0.5160 N   0  0  0  0  0  0  0  0  0  0  0  0
   -1.4906  -12.6724    0.8325 C   0  0  0  0  0  0  0  0  0  0  0  0
   -0.7531  -13.5591    1.3425 O   0  0  0  0  0  0  0  0  0  0  0  0
   -2.8451  -12.9392    0.5720 O   0  0  0  0  0  0  0  0  0  0  0  0
   -3.5373  -14.1703    0.8281 C   0  0  0  0  0  0  0  0  0  0  0  0
   -2.9154  -15.3221    0.0154 C   0  0  0  0  0  0  0  0  0  0  0  0
   -3.5243  -14.4977    2.3334 C   0  0  0  0  0  0  0  0  0  0  0  0
   -4.9924  -13.9739    0.3760 C   0  0  0  0  0  0  0  0  0  0  0  0
    0.5076  -11.1471    0.5830 C   0  0  0  0  0  0  0  0  0  0  0  0
    0.8090   -9.7234    1.0597 C   0  0  0  0  0  0  0  0  0  0  0  0
  1  2  1  0
  2  3  2  0
  3  4  1  0
  4  5  2  0
  5  6  1  0
  6  7  2  0
  7  8  1  0
  8  9  2  0
  8 10  2  0
  8 11  1  0
 11 12  1  0
 12 13  1  0
 13 14  1  0
 14 15  1  0
 15 16  1  0
 16 17  2  0
 17 18  1  0
 18 19  2  0
 19 20  1  0
 20 21  1  0
 14 22  1  0
 22 23  2  0
 23 24  1  0
 24 25  2  0
 25 26  1  0
 26 27  3  0
 25 28  1  0
 28 29  2  0
 11 30  1  0
 30 31  1  0
 31 32  1  0
 32 33  1  0
 33 34  1  0
 34 35  1  0
 35 36  2  0
 35 37  1  0
 37 38  1  0
 38 39  1  0
 38 40  1  0
 38 41  1  0
 34 42  1  0
 42 43  1  0
  7  2  1  0
 20 16  1  0
 29 22  1  0
 43 31  1  0
M  END
$$$$
2IEJ_S48
     RDKit          3D

 38 42  0  0  0  0  0  0  0  0999 V2000
    0.6906   -0.0645    6.1433 C   0  0  0  0  0  0  0  0  0  0  0  0
    1.4986   -0.4317    5.0322 O   0  0  0  0  0  0  0  0  0  0  0  0
    1.7408   -1.7640    4.6858 C   0  0  0  0  0  0  0  0  0  0  0  0
    1.2503   -2.7062    5.3661 O   0  0  0  0  0  0  0  0  0  0  0  0
    2.5687   -2.0746    3.4792 C   0  0  0  0  0  0  0  0  0  0  0  0
    1.7234   -2.6474    2.4137 N   0  0  0  0  0  0  0  0  0  0  0  0
    0.8944   -1.6266    1.7145 C   0  0  0  0  0  0  0  0  0  0  0  0
    1.6506   -0.8154    0.6300 C   0  0  0  0  0  0  0  0  0  0  0  0
    0.7054    0.1743    0.0140 C   0  0  0  0  0  0  0  0  0  0  0  0
    1.0912    1.4940   -0.2591 C   0  0  0  0  0  0  0  0  0  0  0  0
    0.1826    2.3919   -0.8479 C   0  0  0  0  0  0  0  0  0  0  0  0
    0.5843    3.7934   -1.1317 C   0  0  0  0  0  0  0  0  0  0  0  0
    1.8623    4.0808   -1.6478 C   0  0  0  0  0  0  0  0  0  0  0  0
    2.2381    5.4010   -1.9142 C   0  0  0  0  0  0  0  0  0  0  0  0
    1.3459    6.4469   -1.6684 C   0  0  0  0  0  0  0  0  0  0  0  0
    0.0755    6.1750   -1.1560 C   0  0  0  0  0  0  0  0  0  0  0  0
   -0.3060    4.8566   -0.8886 C   0  0  0  0  0  0  0  0  0  0  0  0
   -1.1141    1.9433   -1.1589 C   0  0  0  0  0  0  0  0  0  0  0  0
   -1.4913    0.6227   -0.8999 C   0  0  0  0  0  0  0  0  0  0  0  0
   -0.5773   -0.2717   -0.3254 C   0  0  0  0  0  0  0  0  0  0  0  0
   -0.9160   -1.6475   -0.0589 N   0  0  0  0  0  0  0  0  0  0  0  0
   -1.3808   -2.5052   -1.1620 C   0  0  0  0  0  0  0  0  0  0  0  0
   -2.8452   -2.3127   -1.4376 C   0  0  0  0  0  0  0  0  0  0  0  0
   -3.3873   -1.8383   -2.6134 C   0  0  0  0  0  0  0  0  0  0  0  0
   -4.7309   -1.8010   -2.5030 N   0  0  0  0  0  0  0  0  0  0  0  0
   -4.9803   -2.2657   -1.2602 C   0  0  0  0  0  0  0  0  0  0  0  0
   -3.8564   -2.6006   -0.5966 N   0  0  0  0  0  0  0  0  0  0  0  0
   -3.7800   -3.0830    0.7780 C   0  0  0  0  0  0  0  0  0  0  0  0
   -0.4256   -2.2650    1.1915 C   0  0  0  0  0  0  0  0  0  0  0  0
    2.6858   -3.6578    1.3505 S   0  0  0  0  0  6  0  0  0  0  0  0
    3.9458   -2.9341    0.9613 O   0  0  0  0  0  0  0  0  0  0  0  0
    1.9196   -4.0283    0.1114 O   0  0  0  0  0  0  0  0  0  0  0  0
    3.1084   -5.1294    2.2028 C   0  0  0  0  0  0  0  0  0  0  0  0
    4.2691   -5.8493    2.0393 C   0  0  0  0  0  0  0  0  0  0  0  0
    4.2060   -6.9007    2.8710 N   0  0  0  0  0  0  0  0  0  0  0  0
    5.1710   -7.9868    2.9802 C   0  0  0  0  0  0  0  0  0  0  0  0
    3.0144   -6.8122    3.4945 C   0  0  0  0  0  0  0  0  0  0  0  0
    2.3103   -5.7256    3.1118 N   0  0  0  0  0  0  0  0  0  0  0  0
  1  2  1  0
  2  3  1  0
  3  4  2  0
  3  5  1  0
  5  6  1  0
  6  7  1  0
  7  8  1  0
  8  9  1  0
  9 10  2  0
 10 11  1  0
 11 12  1  0
 12 13  2  0
 13 14  1  0
 14 15  2  0
 15 16  1  0
 16 17  2  0
 11 18  2  0
 18 19  1  0
 19 20  2  0
 20 21  1  0
 21 22  1  0
 22 23  1  0
 23 24  2  0
 24 25  1  0
 25 26  2  0
 26 27  1  0
 27 28  1  0
 21 29  1  0
  6 30  1  0
 30 31  2  0
 30 32  2  0
 30 33  1  0
 33 34  2  0
 34 35  1  0
 35 36  1  0
 35 37  1  0
 37 38  2  0
 29  7  1  0
 38 33  1  0
 20  9  1  0
 27 23  1  0
 17 12  1  0
M  END
$$$$
