1JCQ_739
     RDKit          3D

 34 34  0  0  0  0  0  0  0  0999 V2000
   14.7323  137.5794   -3.7405 C   0  0  0  0  0  0  0  0  0  0  0  0
   14.5387  136.2461   -3.0211 C   0  0  0  0  0  0  0  0  0  0  0  0
   14.3142  136.3657   -1.4874 C   0  0  0  0  0  0  0  0  0  0  0  0
   13.8789  134.9909   -0.9434 C   0  0  0  0  0  0  0  0  0  0  0  0
   15.5338  136.9132   -0.6469 C   0  0  0  0  0  0  0  0  0  0  0  0
   16.8730  136.2674   -1.0876 C   0  0  0  0  0  0  0  0  0  0  0  0
   17.8894  136.4863   -0.1234 O   0  0  0  0  0  0  0  0  0  0  0  0
   17.9971  135.4059    0.7942 C   0  0  0  0  0  0  0  0  0  0  0  0
   19.1954  134.5099    0.4279 C   0  0  0  0  0  0  0  0  0  0  0  0
   18.9742  133.7850   -0.8731 C   0  0  0  0  0  0  0  0  0  0  0  0
   18.1792  132.6270   -0.9092 C   0  0  0  0  0  0  0  0  0  0  0  0
   17.9222  131.9869   -2.1254 C   0  0  0  0  0  0  0  0  0  0  0  0
   18.4517  132.5000   -3.3126 C   0  0  0  0  0  0  0  0  0  0  0  0
   19.2383  133.6548   -3.2859 C   0  0  0  0  0  0  0  0  0  0  0  0
   19.4981  134.2981   -2.0720 C   0  0  0  0  0  0  0  0  0  0  0  0
   18.2189  135.9686    2.1698 C   0  0  0  0  0  0  0  0  0  0  0  0
   18.9955  136.9514    2.3224 O   0  0  0  0  0  0  0  0  0  0  0  0
   17.5897  135.3609    3.3081 N   0  0  0  0  0  0  0  0  0  0  0  0
   17.8016  135.8463    4.6739 C   0  0  0  0  0  0  0  0  0  0  0  0
   16.5474  135.5760    5.5257 C   0  0  0  0  0  0  0  0  0  0  0  0
   16.6198  136.2619    6.8952 C   0  0  0  0  0  0  0  0  0  0  0  0
   15.1188  135.9882    7.8222 S   0  0  0  0  0  6  0  0  0  0  0  0
   15.2522  136.7892    9.4043 C   0  0  0  0  0  0  0  0  0  0  0  0
   13.9472  136.5599    7.0743 O   0  0  0  0  0  0  0  0  0  0  0  0
   14.9094  134.5143    8.0284 O   0  0  0  0  0  0  0  0  0  0  0  0
   19.0146  135.1802    5.2586 C   0  0  0  0  0  0  0  0  0  0  0  0
   19.1156  133.9245    5.2586 O   0  0  0  0  0  0  0  0  0  0  0  0
   20.0256  135.9494    5.8206 O   0  0  0  0  0  1  0  0  0  0  0  0
   15.6705  138.3968   -0.6272 N   0  0  0  0  0  4  0  0  0  0  0  0
   14.4554  139.1910   -0.3400 C   0  0  0  0  0  0  0  0  0  0  0  0
   13.7272  138.8460    0.9938 C   0  0  0  0  0  0  0  0  0  0  0  0
   12.3622  139.3903    0.9510 N   0  0  0  0  0  4  0  0  0  0  0  0
   14.4674  139.4163    2.2284 C   0  0  0  0  0  0  0  0  0  0  0  0
   15.7746  138.3439    2.7843 S   0  0  0  0  0  1  0  0  0  0  0  0
  1  2  1  0
  2  3  1  0
  3  4  1  0
  3  5  1  0
  5  6  1  0
  6  7  1  0
  7  8  1  0
  8  9  1  0
  9 10  1  0
 10 11  2  0
 11 12  1  0
 12 13  2  0
 13 14  1  0
 14 15  2  0
  8 16  1  0
 16 17  2  0
 16 18  1  0
 18 19  1  0
 19 20  1  0
 20 21  1  0
 21 22  1  0
 22 23  1  0
 22 24  2  0
 22 25  2  0
 19 26  1  0
 26 27  2  0
 26 28  1  0
  5 29  1  0
 29 30  1  0
 30 31  1  0
 31 32  1  0
 31 33  1  0
 33 34  1  0
 15 10  1  0
M  CHG  4  28  -1  29   1  32   1  34  -1
M  END
$$$$
1SA4_JAN
     RDKit          3D

 34 38  0  0  0  0  0  0  0  0999 V2000
   20.6557  132.6105   -2.5035 C   0  0  0  0  0  0  0  0  0  0  0  0
   20.5080  133.9244   -1.8817 N   0  0  0  0  0  0  0  0  0  0  0  0
   21.3538  134.9595   -2.0516 C   0  0  0  0  0  0  0  0  0  0  0  0
   20.9680  136.0632   -1.3825 N   0  0  0  0  0  0  0  0  0  0  0  0
   19.8212  135.7039   -0.7739 C   0  0  0  0  0  0  0  0  0  0  0  0
   19.5148  134.3868   -1.0865 C   0  0  0  0  0  0  0  0  0  0  0  0
   18.3076  133.5781   -0.5792 C   0  0  0  0  0  0  0  0  0  0  0  0
   17.6094  132.9878   -1.7506 N   0  0  0  0  0  4  0  0  0  0  0  0
   18.7633  132.4385    0.3607 C   0  0  0  0  0  0  0  0  0  0  0  0
   17.8757  131.3834    0.6665 C   0  0  0  0  0  0  0  0  0  0  0  0
   18.2467  130.3652    1.5484 C   0  0  0  0  0  0  0  0  0  0  0  0
   19.4999  130.3898    2.1621 C   0  0  0  0  0  0  0  0  0  0  0  0
   19.9604  129.1122    3.2720 Cl  0  0  0  0  0  0  0  0  0  0  0  0
   20.3787  131.4428    1.9044 C   0  0  0  0  0  0  0  0  0  0  0  0
   20.0136  132.4649    1.0243 C   0  0  0  0  0  0  0  0  0  0  0  0
   17.3406  134.5253    0.1723 C   0  0  0  0  0  0  0  0  0  0  0  0
   17.3815  134.6714    1.5715 C   0  0  0  0  0  0  0  0  0  0  0  0
   16.5480  135.5744    2.2278 C   0  0  0  0  0  0  0  0  0  0  0  0
   15.6418  136.3900    1.5138 C   0  0  0  0  0  0  0  0  0  0  0  0
   15.6049  136.2714    0.0976 C   0  0  0  0  0  0  0  0  0  0  0  0
   16.4755  135.3693   -0.5497 C   0  0  0  0  0  0  0  0  0  0  0  0
   14.7166  137.0881   -0.6371 C   0  0  0  0  0  0  0  0  0  0  0  0
   14.5684  136.9911   -2.1080 C   0  0  0  0  0  0  0  0  0  0  0  0
   14.0877  135.8095   -2.6968 C   0  0  0  0  0  0  0  0  0  0  0  0
   13.9399  135.7248   -4.0842 C   0  0  0  0  0  0  0  0  0  0  0  0
   14.2607  136.8197   -4.8914 C   0  0  0  0  0  0  0  0  0  0  0  0
   14.7275  138.0043   -4.3117 C   0  0  0  0  0  0  0  0  0  0  0  0
   15.1254  139.3794   -5.3254 Cl  0  0  0  0  0  0  0  0  0  0  0  0
   14.8774  138.0920   -2.9231 C   0  0  0  0  0  0  0  0  0  0  0  0
   13.9268  138.0136    0.0413 C   0  0  0  0  0  0  0  0  0  0  0  0
   13.9845  138.1106    1.4286 C   0  0  0  0  0  0  0  0  0  0  0  0
   13.2454  138.9609    1.9968 O   0  0  0  0  0  0  0  0  0  0  0  0
   14.8213  137.2993    2.1582 N   0  0  0  0  0  0  0  0  0  0  0  0
   14.8443  137.4184    3.6310 C   0  0  0  0  0  0  0  0  0  0  0  0
  1  2  1  0
  2  3  1  0
  3  4  2  0
  4  5  1  0
  5  6  2  0
  6  7  1  0
  7  8  1  0
  7  9  1  0
  9 10  2  0
 10 11  1  0
 11 12  2  0
 12 13  1  0
 12 14  1  0
 14 15  2  0
  7 16  1  0
 16 17  2  0
 17 18  1  0
 18 19  2  0
 19 20  1  0
 20 21  2  0
 20 22  1  0
 22 23  1  0
 23 24  2  0
 24 25  1  0
 25 26  2  0
 26 27  1  0
 27 28  1  0
 27 29  2  0
 22 30  2  0
 30 31  1  0
 31 32  2  0
 31 33  1  0
 33 34  1  0
  6  2  1  0
 15  9  1  0
 21 16  1  0
 29 23  1  0
 33 19  1  0
M  CHG  1   8   1
M  END
$$$$
1MZC_BNE
     RDKit          3D

 35 38  0  0  0  0  0  0  0  0999 V2000
   16.6996  125.6113   -3.2629 C   0  0  0  0  0  0  0  0  0  0  0  0
   17.6319  124.9767   -2.2205 C   0  0  0  0  0  0  0  0  0  0  0  0
   18.9171  125.8095   -1.8906 C   0  0  0  0  0  0  0  0  0  0  0  0
   18.4548  127.2105   -1.4356 C   0  0  0  0  0  0  0  0  0  0  0  0
   17.9173  127.4064   -0.1444 C   0  0  0  0  0  0  0  0  0  0  0  0
   17.4465  128.6585    0.2544 C   0  0  0  0  0  0  0  0  0  0  0  0
   17.4715  129.7328   -0.6324 C   0  0  0  0  0  0  0  0  0  0  0  0
   17.9586  129.5582   -1.9366 C   0  0  0  0  0  0  0  0  0  0  0  0
   17.9694  130.6086   -2.8659 O   0  0  0  0  0  0  0  0  0  0  0  0
   18.1750  131.9608   -2.5473 C   0  0  0  0  0  0  0  0  0  0  0  0
   19.0127  132.3369   -1.4840 C   0  0  0  0  0  0  0  0  0  0  0  0
   19.1982  133.6912   -1.1376 C   0  0  0  0  0  0  0  0  0  0  0  0
   20.1211  134.0312    0.0538 C   0  0  0  0  0  0  0  0  0  0  0  0
   20.1089  135.5379    0.4025 C   0  0  0  0  0  0  0  0  0  0  0  0
   21.4953  133.6345   -0.3171 N   0  0  0  0  0  4  0  0  0  0  0  0
   19.6281  133.2796    1.3030 C   0  0  0  0  0  0  0  0  0  0  0  0
   18.3001  132.9808    1.5713 C   0  0  0  0  0  0  0  0  0  0  0  0
   18.1899  132.4217    2.7907 N   0  0  0  0  0  0  0  0  0  0  0  0
   19.4501  132.4057    3.2649 C   0  0  0  0  0  0  0  0  0  0  0  0
   20.3424  132.9342    2.4029 N   0  0  0  0  0  0  0  0  0  0  0  0
   21.7652  133.1051    2.6887 C   0  0  0  0  0  0  0  0  0  0  0  0
   18.5656  134.6716   -1.9343 C   0  0  0  0  0  0  0  0  0  0  0  0
   17.7620  134.3029   -3.0159 C   0  0  0  0  0  0  0  0  0  0  0  0
   17.5655  132.9540   -3.3262 C   0  0  0  0  0  0  0  0  0  0  0  0
   16.7238  132.5965   -4.4399 C   0  0  0  0  0  0  0  0  0  0  0  0
   16.0478  132.3088   -5.3342 N   0  0  0  0  0  0  0  0  0  0  0  0
   18.4071  128.2971   -2.3409 C   0  0  0  0  0  0  0  0  0  0  0  0
   19.6854  125.0313   -0.7710 C   0  0  0  0  0  0  0  0  0  0  0  0
   20.8240  125.7915   -0.0656 C   0  0  0  0  0  0  0  0  0  0  0  0
   21.9982  126.1419   -0.9830 C   0  0  0  0  0  0  0  0  0  0  0  0
   21.6514  127.2645   -1.9648 C   0  0  0  0  0  0  0  0  0  0  0  0
   21.0022  126.7336   -3.1729 N   0  0  0  0  0  0  0  0  0  0  0  0
   21.5711  127.0363   -4.4914 C   0  0  0  0  0  0  0  0  0  0  0  0
   19.8498  125.8619   -3.1118 C   0  0  0  0  0  0  0  0  0  0  0  0
   19.6434  125.0754   -4.0785 O   0  0  0  0  0  0  0  0  0  0  0  0
  1  2  1  0
  2  3  1  0
  3  4  1  0
  4  5  2  0
  5  6  1  0
  6  7  2  0
  7  8  1  0
  8  9  1  0
  9 10  1  0
 10 11  2  0
 11 12  1  0
 12 13  1  0
 13 14  1  0
 13 15  1  0
 13 16  1  0
 16 17  2  0
 17 18  1  0
 18 19  2  0
 19 20  1  0
 20 21  1  0
 12 22  2  0
 22 23  1  0
 23 24  2  0
 24 25  1  0
 25 26  3  0
  8 27  2  0
  3 28  1  0
 28 29  1  0
 29 30  1  0
 30 31  1  0
 31 32  1  0
 32 33  1  0
 32 34  1  0
 34 35  2  0
 34  3  1  0
 27  4  1  0
 24 10  1  0
 20 16  1  0
M  CHG  1  15   1
M  END
$$$$
1LD7_U66
     RDKit          3D

 34 39  0  0  0  0  0  0  0  0999 V2000
   -2.1063    2.3826    6.8083 N   0  0  0  0  0  0  0  0  0  0  0  0
   -1.1084    1.8480    6.5680 C   0  0  0  0  0  0  0  0  0  0  0  0
    0.1605    1.1675    6.2619 C   0  0  0  0  0  0  0  0  0  0  0  0
    1.2264    2.1919    5.8473 C   0  0  0  0  0  0  0  0  0  0  0  0
    2.5090    1.5138    5.4451 C   0  0  0  0  0  0  0  0  0  0  0  0
    2.5570    0.2517    4.9618 C   0  0  0  0  0  0  0  0  0  0  0  0
    1.3010   -0.6109    4.8764 C   0  0  0  0  0  0  0  0  0  0  0  0
   -0.0309    0.1408    5.1360 C   0  0  0  0  0  0  0  0  0  0  0  0
   -0.4734    0.8195    3.9567 O   0  0  0  0  0  0  0  0  0  0  0  0
   -0.8581    0.1878    2.7705 C   0  0  0  0  0  0  0  0  0  0  0  0
   -1.6431   -0.9748    2.7493 C   0  0  0  0  0  0  0  0  0  0  0  0
   -1.9584   -1.5824    1.5280 C   0  0  0  0  0  0  0  0  0  0  0  0
   -1.4102   -1.0900    0.3310 C   0  0  0  0  0  0  0  0  0  0  0  0
   -1.6732   -1.7238   -0.8910 C   0  0  0  0  0  0  0  0  0  0  0  0
   -1.0586   -1.2726   -2.0610 C   0  0  0  0  0  0  0  0  0  0  0  0
   -0.1321   -0.2276   -2.0149 C   0  0  0  0  0  0  0  0  0  0  0  0
    0.1625    0.4129   -0.8008 C   0  0  0  0  0  0  0  0  0  0  0  0
   -0.5555    0.0386    0.3640 C   0  0  0  0  0  0  0  0  0  0  0  0
   -0.4114    0.7380    1.5742 C   0  0  0  0  0  0  0  0  0  0  0  0
    1.2994    1.2997   -0.7242 N   0  0  0  0  0  0  0  0  0  0  0  0
    1.6163    2.3732   -1.6542 C   0  0  0  0  0  0  0  0  0  0  0  0
    2.9659    2.9565   -1.1741 C   0  0  0  0  0  0  0  0  0  0  0  0
    3.1540    2.4733    0.2782 C   0  0  0  0  0  0  0  0  0  0  0  0
    4.5548    2.1384    0.6092 N   0  0  0  0  0  4  0  0  0  0  0  0
    4.7624    2.0592    2.0782 C   0  0  0  0  0  0  0  0  0  0  0  0
    5.6738    0.8892    2.4830 C   0  0  0  0  0  0  0  0  0  0  0  0
    4.9339   -0.4249    2.4634 C   0  0  0  0  0  0  0  0  0  0  0  0
    4.9253   -1.3135    1.4090 C   0  0  0  0  0  0  0  0  0  0  0  0
    4.1450   -2.3678    1.7173 N   0  0  0  0  0  0  0  0  0  0  0  0
    3.6873   -2.0979    2.9579 C   0  0  0  0  0  0  0  0  0  0  0  0
    4.1350   -0.9185    3.4372 N   0  0  0  0  0  0  0  0  0  0  0  0
    3.9139   -0.4136    4.7969 C   0  0  0  0  0  0  0  0  0  0  0  0
    2.2714    1.2854    0.3062 C   0  0  0  0  0  0  0  0  0  0  0  0
    2.3659    0.3518    1.1460 O   0  0  0  0  0  0  0  0  0  0  0  0
  1  2  3  0
  2  3  1  0
  3  4  1  0
  4  5  1  0
  5  6  2  0
  6  7  1  0
  7  8  1  0
  8  9  1  0
  9 10  1  0
 10 11  2  0
 11 12  1  0
 12 13  2  0
 13 14  1  0
 14 15  2  0
 15 16  1  0
 16 17  2  0
 17 18  1  0
 18 19  2  0
 17 20  1  0
 20 21  1  0
 21 22  1  0
 22 23  1  0
 23 24  1  0
 24 25  1  0
 25 26  1  0
 26 27  1  0
 27 28  2  0
 28 29  1  0
 29 30  2  0
 30 31  1  0
 31 32  1  0
 23 33  1  0
 33 34  2  0
  8  3  1  0
 19 10  1  0
 33 20  1  0
 32  6  1  0
 18 13  1  0
 31 27  1  0
M  CHG  1  24   1
M  END
$$$$
1S63_778
     RDKit          3D

 29 32  0  0  0  0  0  0  0  0999 V2000
   19.3770  135.0276    1.3775 N   0  0  0  0  0  0  0  0  0  0  0  0
   19.1926  134.4785    0.3758 C   0  0  0  0  0  0  0  0  0  0  0  0
   18.9606  133.7965   -0.8703 C   0  0  0  0  0  0  0  0  0  0  0  0
   18.1840  132.6319   -0.8983 C   0  0  0  0  0  0  0  0  0  0  0  0
   17.9283  131.9882   -2.1125 C   0  0  0  0  0  0  0  0  0  0  0  0
   18.4454  132.5059   -3.3117 C   0  0  0  0  0  0  0  0  0  0  0  0
   18.1314  131.8443   -4.6264 C   0  0  0  0  0  0  0  0  0  0  0  0
   17.4981  132.7886   -5.5518 N   0  0  0  0  0  0  0  0  0  0  0  0
   18.0341  133.2490   -6.7003 C   0  0  0  0  0  0  0  0  0  0  0  0
   17.1983  134.0659   -7.3755 N   0  0  0  0  0  0  0  0  0  0  0  0
   16.0876  134.1165   -6.6133 C   0  0  0  0  0  0  0  0  0  0  0  0
   16.2657  133.3356   -5.4912 C   0  0  0  0  0  0  0  0  0  0  0  0
   15.2639  133.1545   -4.3763 C   0  0  0  0  0  0  0  0  0  0  0  0
   15.4173  134.1802   -3.3144 N   0  0  0  0  0  4  0  0  0  0  0  0
   14.6805  133.7635   -2.1014 C   0  0  0  0  0  0  0  0  0  0  0  0
   14.9932  134.6999   -0.9287 C   0  0  0  0  0  0  0  0  0  0  0  0
   14.7847  136.1056   -1.2943 N   0  0  0  0  0  0  0  0  0  0  0  0
   14.5739  137.0848   -0.2569 C   0  0  0  0  0  0  0  0  0  0  0  0
   13.5860  138.0734   -0.4065 C   0  0  0  0  0  0  0  0  0  0  0  0
   13.3737  139.0188    0.6010 C   0  0  0  0  0  0  0  0  0  0  0  0
   14.1424  138.9852    1.7672 C   0  0  0  0  0  0  0  0  0  0  0  0
   15.1250  138.0036    1.9293 C   0  0  0  0  0  0  0  0  0  0  0  0
   16.0912  137.9629    3.3927 Cl  0  0  0  0  0  0  0  0  0  0  0  0
   15.3394  137.0551    0.9232 C   0  0  0  0  0  0  0  0  0  0  0  0
   14.9741  136.5173   -2.6619 C   0  0  0  0  0  0  0  0  0  0  0  0
   15.1291  137.7358   -2.9478 O   0  0  0  0  0  0  0  0  0  0  0  0
   14.9346  135.5031   -3.7710 C   0  0  0  0  0  0  0  0  0  0  0  0
   19.2493  133.6573   -3.2739 C   0  0  0  0  0  0  0  0  0  0  0  0
   19.4989  134.3035   -2.0594 C   0  0  0  0  0  0  0  0  0  0  0  0
  1  2  3  0
  2  3  1  0
  3  4  2  0
  4  5  1  0
  5  6  2  0
  6  7  1  0
  7  8  1  0
  8  9  1  0
  9 10  2  0
 10 11  1  0
 11 12  2  0
 12 13  1  0
 13 14  1  0
 14 15  1  0
 15 16  1  0
 16 17  1  0
 17 18  1  0
 18 19  2  0
 19 20  1  0
 20 21  2  0
 21 22  1  0
 22 23  1  0
 22 24  2  0
 17 25  1  0
 25 26  2  0
 25 27  1  0
  6 28  1  0
 28 29  2  0
 29  3  1  0
 12  8  1  0
 27 14  1  0
 24 18  1  0
M  CHG  1  14   1
M  END
$$$$
3E37_ED5
     RDKit          3D

 43 46  0  0  0  0  0  0  0  0999 V2000
   12.4979  132.5744   -0.7945 C   0  0  0  0  0  0  0  0  0  0  0  0
   13.4830  132.4955   -1.9317 C   0  0  0  0  0  0  0  0  0  0  0  0
   13.7563  131.2427   -2.5094 C   0  0  0  0  0  0  0  0  0  0  0  0
   14.6455  131.1322   -3.5791 C   0  0  0  0  0  0  0  0  0  0  0  0
   15.2695  132.2689   -4.0887 C   0  0  0  0  0  0  0  0  0  0  0  0
   15.0126  133.5200   -3.5273 C   0  0  0  0  0  0  0  0  0  0  0  0
   14.1175  133.6520   -2.4523 C   0  0  0  0  0  0  0  0  0  0  0  0
   13.8282  135.2647   -1.7678 S   0  0  0  0  0  6  0  0  0  0  0  0
   12.3476  135.5193   -1.7876 O   0  0  0  0  0  0  0  0  0  0  0  0
   14.4909  136.3056   -2.6287 O   0  0  0  0  0  0  0  0  0  0  0  0
   14.4233  135.3782   -0.1189 N   0  0  0  0  0  0  0  0  0  0  0  0
   15.6571  134.5928    0.0958 C   0  0  0  0  0  0  0  0  0  0  0  0
   16.8871  135.1333   -0.6579 C   0  0  0  0  0  0  0  0  0  0  0  0
   18.0163  134.2083   -0.5074 N   0  0  0  0  0  0  0  0  0  0  0  0
   19.1727  134.5461    0.3300 C   0  0  0  0  0  0  0  0  0  0  0  0
   19.2842  133.5807    1.4739 C   0  0  0  0  0  0  0  0  0  0  0  0
   18.5148  133.5948    2.6166 C   0  0  0  0  0  0  0  0  0  0  0  0
   18.8407  132.5364    3.3868 N   0  0  0  0  0  0  0  0  0  0  0  0
   19.8013  131.8932    2.6887 C   0  0  0  0  0  0  0  0  0  0  0  0
   20.0840  132.4987    1.5185 N   0  0  0  0  0  0  0  0  0  0  0  0
   21.0783  132.0745    0.5371 C   0  0  0  0  0  0  0  0  0  0  0  0
   18.0595  133.0250   -1.3177 C   0  0  0  0  0  0  0  0  0  0  0  0
   18.5742  133.0855   -2.6193 C   0  0  0  0  0  0  0  0  0  0  0  0
   18.6288  131.9320   -3.4073 C   0  0  0  0  0  0  0  0  0  0  0  0
   18.1623  130.7124   -2.8994 C   0  0  0  0  0  0  0  0  0  0  0  0
   18.2007  129.5287   -3.7168 C   0  0  0  0  0  0  0  0  0  0  0  0
   18.2305  128.5770   -4.3745 N   0  0  0  0  0  0  0  0  0  0  0  0
   17.6464  130.6503   -1.5986 C   0  0  0  0  0  0  0  0  0  0  0  0
   17.5981  131.8025   -0.8091 C   0  0  0  0  0  0  0  0  0  0  0  0
   14.5498  136.7764    0.3444 C   0  0  0  0  0  0  0  0  0  0  0  0
   13.1804  137.3623    0.7440 C   0  0  0  0  0  0  0  0  0  0  0  0
   12.4465  136.4564    1.7700 C   0  0  0  0  0  0  0  0  0  0  0  0
   11.6382  137.2310    2.8272 C   0  0  0  0  0  0  0  0  0  0  0  0
   11.0886  138.4803    2.2776 N   0  0  0  0  0  0  0  0  0  0  0  0
    9.7416  138.8932    2.5756 C   0  0  0  0  0  0  0  0  0  0  0  0
    8.9997  138.1650    3.2895 O   0  0  0  0  0  0  0  0  0  0  0  0
    9.2664  140.1122    2.0641 O   0  0  0  0  0  0  0  0  0  0  0  0
    7.9579  140.6678    2.2619 C   0  0  0  0  0  0  0  0  0  0  0  0
    7.6999  140.9302    3.7579 C   0  0  0  0  0  0  0  0  0  0  0  0
    6.8786  139.7356    1.6789 C   0  0  0  0  0  0  0  0  0  0  0  0
    7.9159  142.0064    1.5092 C   0  0  0  0  0  0  0  0  0  0  0  0
   11.9640  139.4090    1.5468 C   0  0  0  0  0  0  0  0  0  0  0  0
   13.3428  138.7966    1.2735 C   0  0  0  0  0  0  0  0  0  0  0  0
  1  2  1  0
  2  3  2  0
  3  4  1  0
  4  5  2  0
  5  6  1  0
  6  7  2  0
  7  8  1  0
  8  9  2  0
  8 10  2  0
  8 11  1  0
 11 12  1  0
 12 13  1  0
 13 14  1  0
 14 15  1  0
 15 16  1  0
 16 17  2  0
 17 18  1  0
 18 19  2  0
 19 20  1  0
 20 21  1  0
 14 22  1  0
 22 23  2  0
 23 24  1  0
 24 25  2  0
 25 26  1  0
 26 27  3  0
 25 28  1  0
 28 29  2  0
 11 30  1  0
 30 31  1  0
 31 32  1  0
 32 33  1  0
 33 34  1  0
 34 35  1  0
 35 36  2  0
 35 37  1  0
 37 38  1  0
 38 39  1  0
 38 40  1  0
 38 41  1  0
 34 42  1  0
 42 43  1  0
  7  2  1  0
 20 16  1  0
 29 22  1  0
 43 31  1  0
M  END
$$$$
2IEJ_S48
     RDKit          3D

 38 42  0  0  0  0  0  0  0  0999 V2000
    1.9835   -2.7442  -10.2374 C   0  0  0  0  0  0  0  0  0  0  0  0
    1.2858   -2.0559   -9.2070 O   0  0  0  0  0  0  0  0  0  0  0  0
    1.0178   -2.6350   -7.9634 C   0  0  0  0  0  0  0  0  0  0  0  0
    1.3599   -3.8250   -7.7207 O   0  0  0  0  0  0  0  0  0  0  0  0
    0.2808   -1.8455   -6.9251 C   0  0  0  0  0  0  0  0  0  0  0  0
    0.9607   -1.9433   -5.6112 N   0  0  0  0  0  0  0  0  0  0  0  0
    0.0728   -1.6006   -4.4555 C   0  0  0  0  0  0  0  0  0  0  0  0
    0.7905   -1.8659   -3.1102 C   0  0  0  0  0  0  0  0  0  0  0  0
   -0.0697   -1.3722   -1.9875 C   0  0  0  0  0  0  0  0  0  0  0  0
    0.4716   -0.6269   -0.9293 C   0  0  0  0  0  0  0  0  0  0  0  0
   -0.3578   -0.1314    0.0901 C   0  0  0  0  0  0  0  0  0  0  0  0
    0.2112    0.6851    1.1922 C   0  0  0  0  0  0  0  0  0  0  0  0
   -0.4666    1.8270    1.6599 C   0  0  0  0  0  0  0  0  0  0  0  0
    0.0764    2.5999    2.6909 C   0  0  0  0  0  0  0  0  0  0  0  0
    1.2981    2.2429    3.2658 C   0  0  0  0  0  0  0  0  0  0  0  0
    1.9800    1.1123    2.8105 C   0  0  0  0  0  0  0  0  0  0  0  0
    1.4423    0.3364    1.7792 C   0  0  0  0  0  0  0  0  0  0  0  0
   -1.7353   -0.4030    0.0373 C   0  0  0  0  0  0  0  0  0  0  0  0
   -2.2727   -1.1525   -1.0125 C   0  0  0  0  0  0  0  0  0  0  0  0
   -1.4409   -1.6512   -2.0309 C   0  0  0  0  0  0  0  0  0  0  0  0
   -1.9617   -2.4087   -3.1491 N   0  0  0  0  0  0  0  0  0  0  0  0
   -3.2155   -3.1728   -3.0444 C   0  0  0  0  0  0  0  0  0  0  0  0
   -3.1505   -4.1780   -1.9257 C   0  0  0  0  0  0  0  0  0  0  0  0
   -3.9050   -4.1552   -0.7720 C   0  0  0  0  0  0  0  0  0  0  0  0
   -3.5567   -5.1965    0.0112 N   0  0  0  0  0  0  0  0  0  0  0  0
   -2.5962   -5.8379   -0.6878 C   0  0  0  0  0  0  0  0  0  0  0  0
   -2.3368   -5.2492   -1.8717 N   0  0  0  0  0  0  0  0  0  0  0  0
   -1.3326   -5.6672   -2.8439 C   0  0  0  0  0  0  0  0  0  0  0  0
   -1.2582   -2.4161   -4.4490 C   0  0  0  0  0  0  0  0  0  0  0  0
    2.4000   -0.9149   -5.6404 S   0  0  0  0  0  6  0  0  0  0  0  0
    2.9268   -0.7436   -7.0384 O   0  0  0  0  0  0  0  0  0  0  0  0
    3.4818   -1.5666   -4.8248 O   0  0  0  0  0  0  0  0  0  0  0  0
    2.0762    0.6906   -4.9955 C   0  0  0  0  0  0  0  0  0  0  0  0
    2.5235    1.1815   -3.7892 C   0  0  0  0  0  0  0  0  0  0  0  0
    1.9832    2.3983   -3.6267 N   0  0  0  0  0  0  0  0  0  0  0  0
    2.0646    3.2324   -2.4350 C   0  0  0  0  0  0  0  0  0  0  0  0
    1.2169    2.6134   -4.7142 C   0  0  0  0  0  0  0  0  0  0  0  0
    1.2528    1.5817   -5.5846 N   0  0  0  0  0  0  0  0  0  0  0  0
  1  2  1  0
  2  3  1  0
  3  4  2  0
  3  5  1  0
  5  6  1  0
  6  7  1  0
  7  8  1  0
  8  9  1  0
  9 10  2  0
 10 11  1  0
 11 12  1  0
 12 13  2  0
 13 14  1  0
 14 15  2  0
 15 16  1  0
 16 17  2  0
 11 18  2  0
 18 19  1  0
 19 20  2  0
 20 21  1  0
 21 22  1  0
 22 23  1  0
 23 24  2  0
 24 25  1  0
 25 26  2  0
 26 27  1  0
 27 28  1  0
 21 29  1  0
  6 30  1  0
 30 31  2  0
 30 32  2  0
 30 33  1  0
 33 34  2  0
 34 35  1  0
 35 36  1  0
 35 37  1  0
 37 38  2  0
 29  7  1  0
 38 33  1  0
 20  9  1  0
 27 23  1  0
 17 12  1  0
M  END
$$$$
