1JCQ_739
     RDKit          3D

 34 34  0  0  0  0  0  0  0  0999 V2000
   12.7590  -79.3207    0.6893 C   0  0  0  0  0  0  0  0  0  0  0  0
   14.2689  -79.1098    0.8544 C   0  0  0  0  0  0  0  0  0  0  0  0
   14.9664  -79.9291    1.9806 C   0  0  0  0  0  0  0  0  0  0  0  0
   14.5756  -81.4184    1.9508 C   0  0  0  0  0  0  0  0  0  0  0  0
   14.9009  -79.3299    3.4311 C   0  0  0  0  0  0  0  0  0  0  0  0
   15.8067  -78.0735    3.5863 C   0  0  0  0  0  0  0  0  0  0  0  0
   15.2439  -76.9340    2.9561 O   0  0  0  0  0  0  0  0  0  0  0  0
   14.8696  -75.9392    3.8926 C   0  0  0  0  0  0  0  0  0  0  0  0
   13.8125  -75.0354    3.2407 C   0  0  0  0  0  0  0  0  0  0  0  0
   13.2146  -74.0633    4.2266 C   0  0  0  0  0  0  0  0  0  0  0  0
   12.2827  -74.5094    5.1791 C   0  0  0  0  0  0  0  0  0  0  0  0
   11.7284  -73.6120    6.0964 C   0  0  0  0  0  0  0  0  0  0  0  0
   12.0952  -72.2642    6.0661 C   0  0  0  0  0  0  0  0  0  0  0  0
   13.0236  -71.8133    5.1241 C   0  0  0  0  0  0  0  0  0  0  0  0
   13.5916  -72.7098    4.2136 C   0  0  0  0  0  0  0  0  0  0  0  0
   16.0796  -75.1360    4.2983 C   0  0  0  0  0  0  0  0  0  0  0  0
   16.8344  -74.6561    3.4087 O   0  0  0  0  0  0  0  0  0  0  0  0
   16.3685  -74.9211    5.6876 N   0  0  0  0  0  0  0  0  0  0  0  0
   17.5857  -74.2356    6.1373 C   0  0  0  0  0  0  0  0  0  0  0  0
   17.3767  -72.7101    6.1788 C   0  0  0  0  0  0  0  0  0  0  0  0
   16.2497  -72.2693    7.1232 C   0  0  0  0  0  0  0  0  0  0  0  0
   16.1048  -70.4899    7.1417 S   0  0  0  0  0  6  0  0  0  0  0  0
   14.7507  -70.0197    8.1941 C   0  0  0  0  0  0  0  0  0  0  0  0
   17.3743  -69.8848    7.6718 O   0  0  0  0  0  0  0  0  0  0  0  0
   15.8549  -69.9814    5.7499 O   0  0  0  0  0  0  0  0  0  0  0  0
   18.0575  -74.7713    7.4644 C   0  0  0  0  0  0  0  0  0  0  0  0
   17.2355  -75.1485    8.3417 O   0  0  0  0  0  0  0  0  0  0  0  0
   19.4171  -74.8019    7.7480 O   0  0  0  0  0  1  0  0  0  0  0  0
   13.5125  -79.0872    3.8983 N   0  0  0  0  0  4  0  0  0  0  0  0
   13.3954  -78.9930    5.3753 C   0  0  0  0  0  0  0  0  0  0  0  0
   12.7504  -80.2497    6.0182 C   0  0  0  0  0  0  0  0  0  0  0  0
   13.6099  -81.4305    5.8424 N   0  0  0  0  0  4  0  0  0  0  0  0
   12.4851  -79.9890    7.5164 C   0  0  0  0  0  0  0  0  0  0  0  0
   11.4323  -81.2436    8.2243 S   0  0  0  0  0  1  0  0  0  0  0  0
  1  2  1  0
  2  3  1  0
  3  4  1  0
  3  5  1  0
  5  6  1  0
  6  7  1  0
  7  8  1  0
  8  9  1  0
  9 10  1  0
 10 11  2  0
 11 12  1  0
 12 13  2  0
 13 14  1  0
 14 15  2  0
  8 16  1  0
 16 17  2  0
 16 18  1  0
 18 19  1  0
 19 20  1  0
 20 21  1  0
 21 22  1  0
 22 23  1  0
 22 24  2  0
 22 25  2  0
 19 26  1  0
 26 27  2  0
 26 28  1  0
  5 29  1  0
 29 30  1  0
 30 31  1  0
 31 32  1  0
 31 33  1  0
 33 34  1  0
 15 10  1  0
M  CHG  4  28  -1  29   1  32   1  34  -1
M  END
$$$$
1SA4_JAN
     RDKit          3D

 34 38  0  0  0  0  0  0  0  0999 V2000
   18.8918  -68.2951   -1.4438 C   0  0  0  0  0  0  0  0  0  0  0  0
   18.1477  -69.5477   -1.3326 N   0  0  0  0  0  0  0  0  0  0  0  0
   17.2863  -70.0191   -2.2551 C   0  0  0  0  0  0  0  0  0  0  0  0
   16.7155  -71.1831   -1.8887 N   0  0  0  0  0  0  0  0  0  0  0  0
   17.2372  -71.4463   -0.6751 C   0  0  0  0  0  0  0  0  0  0  0  0
   18.1147  -70.4347   -0.3104 C   0  0  0  0  0  0  0  0  0  0  0  0
   18.9414  -70.3582    0.9851 C   0  0  0  0  0  0  0  0  0  0  0  0
   18.6944  -69.0427    1.6276 N   0  0  0  0  0  4  0  0  0  0  0  0
   20.4536  -70.4978    0.6915 C   0  0  0  0  0  0  0  0  0  0  0  0
   21.3914  -70.1888    1.7013 C   0  0  0  0  0  0  0  0  0  0  0  0
   22.7572  -70.4106    1.5065 C   0  0  0  0  0  0  0  0  0  0  0  0
   23.2153  -70.9611    0.3090 C   0  0  0  0  0  0  0  0  0  0  0  0
   24.9279  -71.2593    0.0770 Cl  0  0  0  0  0  0  0  0  0  0  0  0
   22.3055  -71.2950   -0.6948 C   0  0  0  0  0  0  0  0  0  0  0  0
   20.9383  -71.0767   -0.5066 C   0  0  0  0  0  0  0  0  0  0  0  0
   18.4989  -71.4937    1.9401 C   0  0  0  0  0  0  0  0  0  0  0  0
   17.3567  -71.3512    2.7467 C   0  0  0  0  0  0  0  0  0  0  0  0
   16.9266  -72.3850    3.5783 C   0  0  0  0  0  0  0  0  0  0  0  0
   17.6230  -73.6140    3.6419 C   0  0  0  0  0  0  0  0  0  0  0  0
   18.7712  -73.7761    2.8217 C   0  0  0  0  0  0  0  0  0  0  0  0
   19.1525  -72.7411    1.9455 C   0  0  0  0  0  0  0  0  0  0  0  0
   19.4969  -74.9864    2.8805 C   0  0  0  0  0  0  0  0  0  0  0  0
   20.7622  -75.1954    2.1346 C   0  0  0  0  0  0  0  0  0  0  0  0
   21.8716  -74.3643    2.3705 C   0  0  0  0  0  0  0  0  0  0  0  0
   23.0540  -74.5459    1.6484 C   0  0  0  0  0  0  0  0  0  0  0  0
   23.1442  -75.5659    0.6978 C   0  0  0  0  0  0  0  0  0  0  0  0
   22.0518  -76.4100    0.4701 C   0  0  0  0  0  0  0  0  0  0  0  0
   22.1681  -77.6918   -0.7214 Cl  0  0  0  0  0  0  0  0  0  0  0  0
   20.8644  -76.2282    1.1887 C   0  0  0  0  0  0  0  0  0  0  0  0
   19.0338  -76.0138    3.6991 C   0  0  0  0  0  0  0  0  0  0  0  0
   17.8938  -75.8368    4.4793 C   0  0  0  0  0  0  0  0  0  0  0  0
   17.5162  -76.7960    5.2070 O   0  0  0  0  0  0  0  0  0  0  0  0
   17.2037  -74.6468    4.4618 N   0  0  0  0  0  0  0  0  0  0  0  0
   16.0096  -74.4870    5.3173 C   0  0  0  0  0  0  0  0  0  0  0  0
  1  2  1  0
  2  3  1  0
  3  4  2  0
  4  5  1  0
  5  6  2  0
  6  7  1  0
  7  8  1  0
  7  9  1  0
  9 10  2  0
 10 11  1  0
 11 12  2  0
 12 13  1  0
 12 14  1  0
 14 15  2  0
  7 16  1  0
 16 17  2  0
 17 18  1  0
 18 19  2  0
 19 20  1  0
 20 21  2  0
 20 22  1  0
 22 23  1  0
 23 24  2  0
 24 25  1  0
 25 26  2  0
 26 27  1  0
 27 28  1  0
 27 29  2  0
 22 30  2  0
 30 31  1  0
 31 32  2  0
 31 33  1  0
 33 34  1  0
  6  2  1  0
 15  9  1  0
 21 16  1  0
 29 23  1  0
 33 19  1  0
M  CHG  1   8   1
M  END
$$$$
1MZC_BNE
     RDKit          3D

 35 38  0  0  0  0  0  0  0  0999 V2000
   28.1891  -69.3643    2.2109 C   0  0  0  0  0  0  0  0  0  0  0  0
   27.4228  -70.0108    1.0489 C   0  0  0  0  0  0  0  0  0  0  0  0
   26.5054  -69.0428    0.2351 C   0  0  0  0  0  0  0  0  0  0  0  0
   25.8853  -69.8947   -0.9003 C   0  0  0  0  0  0  0  0  0  0  0  0
   26.5733  -70.1135   -2.1170 C   0  0  0  0  0  0  0  0  0  0  0  0
   26.0243  -70.9147   -3.1203 C   0  0  0  0  0  0  0  0  0  0  0  0
   24.8025  -71.5533   -2.9210 C   0  0  0  0  0  0  0  0  0  0  0  0
   24.1326  -71.4229   -1.7047 C   0  0  0  0  0  0  0  0  0  0  0  0
   22.9216  -72.1087   -1.5261 O   0  0  0  0  0  0  0  0  0  0  0  0
   22.3433  -72.3729   -0.2771 C   0  0  0  0  0  0  0  0  0  0  0  0
   21.0548  -71.8919   -0.0195 C   0  0  0  0  0  0  0  0  0  0  0  0
   20.4420  -72.0880    1.2376 C   0  0  0  0  0  0  0  0  0  0  0  0
   19.0340  -71.5571    1.5550 C   0  0  0  0  0  0  0  0  0  0  0  0
   18.0569  -72.7470    1.4057 C   0  0  0  0  0  0  0  0  0  0  0  0
   18.6138  -70.4914    0.6211 N   0  0  0  0  0  4  0  0  0  0  0  0
   18.9974  -70.9896    2.9831 C   0  0  0  0  0  0  0  0  0  0  0  0
   18.1218  -71.3520    3.9961 C   0  0  0  0  0  0  0  0  0  0  0  0
   18.3631  -70.6113    5.0949 N   0  0  0  0  0  0  0  0  0  0  0  0
   19.3816  -69.8045    4.7398 C   0  0  0  0  0  0  0  0  0  0  0  0
   19.7958  -70.0120    3.4746 N   0  0  0  0  0  0  0  0  0  0  0  0
   20.8139  -69.2148    2.7920 C   0  0  0  0  0  0  0  0  0  0  0  0
   21.1307  -72.8582    2.1985 C   0  0  0  0  0  0  0  0  0  0  0  0
   22.4058  -73.3609    1.9368 C   0  0  0  0  0  0  0  0  0  0  0  0
   23.0208  -73.1192    0.7058 C   0  0  0  0  0  0  0  0  0  0  0  0
   24.3261  -73.6762    0.4512 C   0  0  0  0  0  0  0  0  0  0  0  0
   25.3745  -74.1216    0.2468 N   0  0  0  0  0  0  0  0  0  0  0  0
   24.6750  -70.6000   -0.7008 C   0  0  0  0  0  0  0  0  0  0  0  0
   27.3715  -67.8573   -0.3167 C   0  0  0  0  0  0  0  0  0  0  0  0
   26.6163  -66.9127   -1.2789 C   0  0  0  0  0  0  0  0  0  0  0  0
   25.9927  -65.6943   -0.5787 C   0  0  0  0  0  0  0  0  0  0  0  0
   25.3119  -66.0067    0.7606 C   0  0  0  0  0  0  0  0  0  0  0  0
   24.6458  -67.3111    0.7362 N   0  0  0  0  0  0  0  0  0  0  0  0
   23.1849  -67.3637    0.7522 C   0  0  0  0  0  0  0  0  0  0  0  0
   25.3916  -68.4766    1.1269 C   0  0  0  0  0  0  0  0  0  0  0  0
   25.0346  -69.1011    2.1649 O   0  0  0  0  0  0  0  0  0  0  0  0
  1  2  1  0
  2  3  1  0
  3  4  1  0
  4  5  2  0
  5  6  1  0
  6  7  2  0
  7  8  1  0
  8  9  1  0
  9 10  1  0
 10 11  2  0
 11 12  1  0
 12 13  1  0
 13 14  1  0
 13 15  1  0
 13 16  1  0
 16 17  2  0
 17 18  1  0
 18 19  2  0
 19 20  1  0
 20 21  1  0
 12 22  2  0
 22 23  1  0
 23 24  2  0
 24 25  1  0
 25 26  3  0
  8 27  2  0
  3 28  1  0
 28 29  1  0
 29 30  1  0
 30 31  1  0
 31 32  1  0
 32 33  1  0
 32 34  1  0
 34 35  2  0
 34  3  1  0
 27  4  1  0
 24 10  1  0
 20 16  1  0
M  CHG  1  15   1
M  END
$$$$
1LD7_U66
     RDKit          3D

 34 39  0  0  0  0  0  0  0  0999 V2000
   -1.2835   -0.0024    2.2312 N   0  0  0  0  0  0  0  0  0  0  0  0
   -0.8906    0.4659    1.2483 C   0  0  0  0  0  0  0  0  0  0  0  0
   -0.3838    1.0612   -0.0049 C   0  0  0  0  0  0  0  0  0  0  0  0
    1.1536    1.0319   -0.0043 C   0  0  0  0  0  0  0  0  0  0  0  0
    1.6899   -0.3735   -0.1458 C   0  0  0  0  0  0  0  0  0  0  0  0
    1.0009   -1.3587   -0.7648 C   0  0  0  0  0  0  0  0  0  0  0  0
   -0.4032   -1.1433   -1.2943 C   0  0  0  0  0  0  0  0  0  0  0  0
   -0.8834    0.3188   -1.2653 C   0  0  0  0  0  0  0  0  0  0  0  0
   -2.3037    0.4270   -1.4707 O   0  0  0  0  0  0  0  0  0  0  0  0
   -3.2820   -0.0408   -0.5830 C   0  0  0  0  0  0  0  0  0  0  0  0
   -3.8728    0.8531    0.3123 C   0  0  0  0  0  0  0  0  0  0  0  0
   -4.8064    0.4037    1.2438 C   0  0  0  0  0  0  0  0  0  0  0  0
   -5.1626   -0.9519    1.2918 C   0  0  0  0  0  0  0  0  0  0  0  0
   -6.0800   -1.3947    2.2532 C   0  0  0  0  0  0  0  0  0  0  0  0
   -6.4356   -2.7385    2.3167 C   0  0  0  0  0  0  0  0  0  0  0  0
   -5.8836   -3.6548    1.4239 C   0  0  0  0  0  0  0  0  0  0  0  0
   -4.9666   -3.2452    0.4398 C   0  0  0  0  0  0  0  0  0  0  0  0
   -4.5978   -1.8724    0.3663 C   0  0  0  0  0  0  0  0  0  0  0  0
   -3.6924   -1.3841   -0.6007 C   0  0  0  0  0  0  0  0  0  0  0  0
   -4.4119   -4.2374   -0.4485 N   0  0  0  0  0  0  0  0  0  0  0  0
   -5.1845   -5.2571   -1.1473 C   0  0  0  0  0  0  0  0  0  0  0  0
   -4.1769   -6.3614   -1.5188 C   0  0  0  0  0  0  0  0  0  0  0  0
   -2.7844   -5.7001   -1.4896 C   0  0  0  0  0  0  0  0  0  0  0  0
   -2.4044   -5.2704   -2.8557 N   0  0  0  0  0  4  0  0  0  0  0  0
   -1.2336   -4.3799   -2.9270 C   0  0  0  0  0  0  0  0  0  0  0  0
    0.0728   -5.0513   -2.4771 C   0  0  0  0  0  0  0  0  0  0  0  0
    1.2557   -4.2028   -2.8718 C   0  0  0  0  0  0  0  0  0  0  0  0
    1.8722   -4.2431   -4.1046 C   0  0  0  0  0  0  0  0  0  0  0  0
    2.8317   -3.2982   -4.1597 N   0  0  0  0  0  0  0  0  0  0  0  0
    2.7752   -2.6905   -2.9564 C   0  0  0  0  0  0  0  0  0  0  0  0
    1.8210   -3.2060   -2.1545 N   0  0  0  0  0  0  0  0  0  0  0  0
    1.5462   -2.7706   -0.7834 C   0  0  0  0  0  0  0  0  0  0  0  0
   -3.0355   -4.5543   -0.5707 C   0  0  0  0  0  0  0  0  0  0  0  0
   -2.1391   -4.0013    0.1210 O   0  0  0  0  0  0  0  0  0  0  0  0
  1  2  3  0
  2  3  1  0
  3  4  1  0
  4  5  1  0
  5  6  2  0
  6  7  1  0
  7  8  1  0
  8  9  1  0
  9 10  1  0
 10 11  2  0
 11 12  1  0
 12 13  2  0
 13 14  1  0
 14 15  2  0
 15 16  1  0
 16 17  2  0
 17 18  1  0
 18 19  2  0
 17 20  1  0
 20 21  1  0
 21 22  1  0
 22 23  1  0
 23 24  1  0
 24 25  1  0
 25 26  1  0
 26 27  1  0
 27 28  2  0
 28 29  1  0
 29 30  2  0
 30 31  1  0
 31 32  1  0
 23 33  1  0
 33 34  2  0
  8  3  1  0
 19 10  1  0
 33 20  1  0
 32  6  1  0
 18 13  1  0
 31 27  1  0
M  CHG  1  24   1
M  END
$$$$
1S63_778
     RDKit          3D

 29 32  0  0  0  0  0  0  0  0999 V2000
   25.3676  -74.1174    0.2313 N   0  0  0  0  0  0  0  0  0  0  0  0
   24.3205  -73.6737    0.4459 C   0  0  0  0  0  0  0  0  0  0  0  0
   23.0170  -73.1255    0.7137 C   0  0  0  0  0  0  0  0  0  0  0  0
   22.4051  -73.3507    1.9517 C   0  0  0  0  0  0  0  0  0  0  0  0
   21.1253  -72.8489    2.2035 C   0  0  0  0  0  0  0  0  0  0  0  0
   20.4428  -72.1157    1.2177 C   0  0  0  0  0  0  0  0  0  0  0  0
   19.0793  -71.5405    1.5051 C   0  0  0  0  0  0  0  0  0  0  0  0
   18.1085  -71.9352    0.4807 N   0  0  0  0  0  0  0  0  0  0  0  0
   17.5499  -71.1201   -0.4361 C   0  0  0  0  0  0  0  0  0  0  0  0
   16.6236  -71.7448   -1.1924 N   0  0  0  0  0  0  0  0  0  0  0  0
   16.6051  -73.0101   -0.7273 C   0  0  0  0  0  0  0  0  0  0  0  0
   17.5287  -73.1387    0.2913 C   0  0  0  0  0  0  0  0  0  0  0  0
   17.7804  -74.3738    1.1266 C   0  0  0  0  0  0  0  0  0  0  0  0
   17.8317  -75.6224    0.3216 N   0  0  0  0  0  4  0  0  0  0  0  0
   17.9305  -76.8241    1.1807 C   0  0  0  0  0  0  0  0  0  0  0  0
   19.2447  -76.8782    1.9816 C   0  0  0  0  0  0  0  0  0  0  0  0
   20.4195  -76.5716    1.1514 N   0  0  0  0  0  0  0  0  0  0  0  0
   21.7362  -76.9101    1.6376 C   0  0  0  0  0  0  0  0  0  0  0  0
   22.0843  -76.6881    2.9829 C   0  0  0  0  0  0  0  0  0  0  0  0
   23.3692  -76.9930    3.4406 C   0  0  0  0  0  0  0  0  0  0  0  0
   24.3171  -77.5281    2.5658 C   0  0  0  0  0  0  0  0  0  0  0  0
   23.9797  -77.7667    1.2306 C   0  0  0  0  0  0  0  0  0  0  0  0
   25.1692  -78.4426    0.1329 Cl  0  0  0  0  0  0  0  0  0  0  0  0
   22.6938  -77.4652    0.7693 C   0  0  0  0  0  0  0  0  0  0  0  0
   20.2685  -75.8056   -0.0609 C   0  0  0  0  0  0  0  0  0  0  0  0
   21.2762  -75.3294   -0.6493 O   0  0  0  0  0  0  0  0  0  0  0  0
   18.9168  -75.6249   -0.6841 C   0  0  0  0  0  0  0  0  0  0  0  0
   21.0702  -71.8752   -0.0158 C   0  0  0  0  0  0  0  0  0  0  0  0
   22.3495  -72.3818   -0.2679 C   0  0  0  0  0  0  0  0  0  0  0  0
  1  2  3  0
  2  3  1  0
  3  4  2  0
  4  5  1  0
  5  6  2  0
  6  7  1  0
  7  8  1  0
  8  9  1  0
  9 10  2  0
 10 11  1  0
 11 12  2  0
 12 13  1  0
 13 14  1  0
 14 15  1  0
 15 16  1  0
 16 17  1  0
 17 18  1  0
 18 19  2  0
 19 20  1  0
 20 21  2  0
 21 22  1  0
 22 23  1  0
 22 24  2  0
 17 25  1  0
 25 26  2  0
 25 27  1  0
  6 28  1  0
 28 29  2  0
 29  3  1  0
 12  8  1  0
 27 14  1  0
 24 18  1  0
M  CHG  1  14   1
M  END
$$$$
3E37_ED5
     RDKit          3D

 43 46  0  0  0  0  0  0  0  0999 V2000
   14.7139  -70.9541    3.0617 C   0  0  0  0  0  0  0  0  0  0  0  0
   13.7762  -72.0385    3.5184 C   0  0  0  0  0  0  0  0  0  0  0  0
   13.0382  -71.8320    4.6986 C   0  0  0  0  0  0  0  0  0  0  0  0
   12.1535  -72.8037    5.1656 C   0  0  0  0  0  0  0  0  0  0  0  0
   11.9843  -73.9907    4.4580 C   0  0  0  0  0  0  0  0  0  0  0  0
   12.7016  -74.2121    3.2823 C   0  0  0  0  0  0  0  0  0  0  0  0
   13.6057  -73.2512    2.7967 C   0  0  0  0  0  0  0  0  0  0  0  0
   14.4855  -73.6233    1.2967 S   0  0  0  0  0  6  0  0  0  0  0  0
   13.6379  -74.5573    0.4782 O   0  0  0  0  0  0  0  0  0  0  0  0
   14.6721  -72.3746    0.4808 O   0  0  0  0  0  0  0  0  0  0  0  0
   16.0300  -74.4063    1.5768 N   0  0  0  0  0  0  0  0  0  0  0  0
   17.1793  -73.4993    1.7509 C   0  0  0  0  0  0  0  0  0  0  0  0
   18.4256  -74.0799    1.0708 C   0  0  0  0  0  0  0  0  0  0  0  0
   19.5830  -73.1902    1.2519 N   0  0  0  0  0  0  0  0  0  0  0  0
   20.2511  -73.1626    2.5645 C   0  0  0  0  0  0  0  0  0  0  0  0
   20.3523  -71.7565    3.0938 C   0  0  0  0  0  0  0  0  0  0  0  0
   19.3428  -70.8162    3.1114 C   0  0  0  0  0  0  0  0  0  0  0  0
   19.7905  -69.6903    3.7035 N   0  0  0  0  0  0  0  0  0  0  0  0
   21.0654  -69.9726    4.0457 C   0  0  0  0  0  0  0  0  0  0  0  0
   21.4297  -71.2225    3.6987 N   0  0  0  0  0  0  0  0  0  0  0  0
   22.7334  -71.8406    3.9195 C   0  0  0  0  0  0  0  0  0  0  0  0
   20.0821  -72.3941    0.1481 C   0  0  0  0  0  0  0  0  0  0  0  0
   19.1930  -71.7953   -0.7659 C   0  0  0  0  0  0  0  0  0  0  0  0
   19.6739  -71.0097   -1.8173 C   0  0  0  0  0  0  0  0  0  0  0  0
   21.0492  -70.8089   -1.9728 C   0  0  0  0  0  0  0  0  0  0  0  0
   21.5430  -69.9986   -3.0551 C   0  0  0  0  0  0  0  0  0  0  0  0
   21.9399  -69.3470   -3.9253 N   0  0  0  0  0  0  0  0  0  0  0  0
   21.9431  -71.3982   -1.0730 C   0  0  0  0  0  0  0  0  0  0  0  0
   21.4650  -72.1844   -0.0209 C   0  0  0  0  0  0  0  0  0  0  0  0
   15.9540  -75.6618    2.3679 C   0  0  0  0  0  0  0  0  0  0  0  0
   16.7156  -75.6976    3.7268 C   0  0  0  0  0  0  0  0  0  0  0  0
   16.7491  -77.1565    4.2562 C   0  0  0  0  0  0  0  0  0  0  0  0
   16.9101  -77.2292    5.7787 C   0  0  0  0  0  0  0  0  0  0  0  0
   15.8308  -76.4872    6.4470 N   0  0  0  0  0  0  0  0  0  0  0  0
   15.4295  -76.8542    7.7790 C   0  0  0  0  0  0  0  0  0  0  0  0
   14.4119  -76.3198    8.2982 O   0  0  0  0  0  0  0  0  0  0  0  0
   16.1778  -77.8079    8.4885 O   0  0  0  0  0  0  0  0  0  0  0  0
   15.9112  -78.2848    9.8157 C   0  0  0  0  0  0  0  0  0  0  0  0
   16.9993  -79.3153   10.1537 C   0  0  0  0  0  0  0  0  0  0  0  0
   14.5355  -78.9757    9.8779 C   0  0  0  0  0  0  0  0  0  0  0  0
   15.9865  -77.1301   10.8328 C   0  0  0  0  0  0  0  0  0  0  0  0
   15.1647  -75.3788    5.7473 C   0  0  0  0  0  0  0  0  0  0  0  0
   16.1385  -74.7101    4.7735 C   0  0  0  0  0  0  0  0  0  0  0  0
  1  2  1  0
  2  3  2  0
  3  4  1  0
  4  5  2  0
  5  6  1  0
  6  7  2  0
  7  8  1  0
  8  9  2  0
  8 10  2  0
  8 11  1  0
 11 12  1  0
 12 13  1  0
 13 14  1  0
 14 15  1  0
 15 16  1  0
 16 17  2  0
 17 18  1  0
 18 19  2  0
 19 20  1  0
 20 21  1  0
 14 22  1  0
 22 23  2  0
 23 24  1  0
 24 25  2  0
 25 26  1  0
 26 27  3  0
 25 28  1  0
 28 29  2  0
 11 30  1  0
 30 31  1  0
 31 32  1  0
 32 33  1  0
 33 34  1  0
 34 35  1  0
 35 36  2  0
 35 37  1  0
 37 38  1  0
 38 39  1  0
 38 40  1  0
 38 41  1  0
 34 42  1  0
 42 43  1  0
  7  2  1  0
 20 16  1  0
 29 22  1  0
 43 31  1  0
M  END
$$$$
2IEJ_S48
     RDKit          3D

 38 42  0  0  0  0  0  0  0  0999 V2000
    3.2965   -0.1553    2.2033 C   0  0  0  0  0  0  0  0  0  0  0  0
    1.9980    0.4157    2.3015 O   0  0  0  0  0  0  0  0  0  0  0  0
    1.4309    1.1745    1.2750 C   0  0  0  0  0  0  0  0  0  0  0  0
    2.1113    1.4683    0.2541 O   0  0  0  0  0  0  0  0  0  0  0  0
    0.0346    1.7174    1.4075 C   0  0  0  0  0  0  0  0  0  0  0  0
   -0.9833    0.7215    1.8118 N   0  0  0  0  0  0  0  0  0  0  0  0
   -1.4448   -0.3221    0.8571 C   0  0  0  0  0  0  0  0  0  0  0  0
   -0.3275   -1.1726    0.2166 C   0  0  0  0  0  0  0  0  0  0  0  0
    0.2383   -0.5967   -1.0587 C   0  0  0  0  0  0  0  0  0  0  0  0
    1.4367   -1.1307   -1.5578 C   0  0  0  0  0  0  0  0  0  0  0  0
    2.0053   -0.6428   -2.7444 C   0  0  0  0  0  0  0  0  0  0  0  0
    3.2850   -1.1991   -3.2525 C   0  0  0  0  0  0  0  0  0  0  0  0
    4.2704   -0.3498   -3.7906 C   0  0  0  0  0  0  0  0  0  0  0  0
    5.4760   -0.8754   -4.2652 C   0  0  0  0  0  0  0  0  0  0  0  0
    5.7113   -2.2509   -4.2095 C   0  0  0  0  0  0  0  0  0  0  0  0
    4.7414   -3.1040   -3.6783 C   0  0  0  0  0  0  0  0  0  0  0  0
    3.5343   -2.5839   -3.2014 C   0  0  0  0  0  0  0  0  0  0  0  0
    1.3461    0.3803   -3.4409 C   0  0  0  0  0  0  0  0  0  0  0  0
    0.1455    0.9067   -2.9628 C   0  0  0  0  0  0  0  0  0  0  0  0
   -0.4282    0.4266   -1.7695 C   0  0  0  0  0  0  0  0  0  0  0  0
   -1.6557    0.9884   -1.2429 N   0  0  0  0  0  0  0  0  0  0  0  0
   -2.1608    2.2993   -1.6846 C   0  0  0  0  0  0  0  0  0  0  0  0
   -2.9266    2.1774   -2.9740 C   0  0  0  0  0  0  0  0  0  0  0  0
   -3.8195    1.1792   -3.3058 C   0  0  0  0  0  0  0  0  0  0  0  0
   -4.3591    1.4449   -4.5132 N   0  0  0  0  0  0  0  0  0  0  0  0
   -3.7913    2.6108   -4.8880 C   0  0  0  0  0  0  0  0  0  0  0  0
   -2.9291    3.0853   -3.9680 N   0  0  0  0  0  0  0  0  0  0  0  0
   -2.1590    4.3223   -4.0537 C   0  0  0  0  0  0  0  0  0  0  0  0
   -2.3902    0.2515   -0.2072 C   0  0  0  0  0  0  0  0  0  0  0  0
   -0.8310    0.1467    3.4584 S   0  0  0  0  0  6  0  0  0  0  0  0
   -0.1229    1.1595    4.3147 O   0  0  0  0  0  0  0  0  0  0  0  0
   -0.0721   -1.1506    3.4860 O   0  0  0  0  0  0  0  0  0  0  0  0
   -2.4347   -0.1193    4.1117 C   0  0  0  0  0  0  0  0  0  0  0  0
   -3.5705    0.5657    3.7475 C   0  0  0  0  0  0  0  0  0  0  0  0
   -4.5875    0.0584    4.4608 N   0  0  0  0  0  0  0  0  0  0  0  0
   -5.9968    0.4081    4.3415 C   0  0  0  0  0  0  0  0  0  0  0  0
   -4.0595   -0.9263    5.2146 C   0  0  0  0  0  0  0  0  0  0  0  0
   -2.7285   -1.0614    5.0307 N   0  0  0  0  0  0  0  0  0  0  0  0
  1  2  1  0
  2  3  1  0
  3  4  2  0
  3  5  1  0
  5  6  1  0
  6  7  1  0
  7  8  1  0
  8  9  1  0
  9 10  2  0
 10 11  1  0
 11 12  1  0
 12 13  2  0
 13 14  1  0
 14 15  2  0
 15 16  1  0
 16 17  2  0
 11 18  2  0
 18 19  1  0
 19 20  2  0
 20 21  1  0
 21 22  1  0
 22 23  1  0
 23 24  2  0
 24 25  1  0
 25 26  2  0
 26 27  1  0
 27 28  1  0
 21 29  1  0
  6 30  1  0
 30 31  2  0
 30 32  2  0
 30 33  1  0
 33 34  2  0
 34 35  1  0
 35 36  1  0
 35 37  1  0
 37 38  2  0
 29  7  1  0
 38 33  1  0
 20  9  1  0
 27 23  1  0
 17 12  1  0
M  END
$$$$
