@<TRIPOS>MOLECULE
UNK
48 51 0 0 0
SMALL
GASTEIGER

@<TRIPOS>ATOM
   1    C       -0.9820   10.8420   18.6760 C.3   1 UNL  0.0775
   2    O       -1.6780   10.0170   19.6040 O.3   1 UNL -0.4961
   3    C       -1.6400    8.6670   19.6120 C.ar  1 UNL  0.1263
   4    C       -0.8530    8.0170   18.6680 C.ar  1 UNL -0.0193
   5    C       -0.7920    6.6270   18.6500 C.ar  1 UNL -0.0585
   6    C       -1.5190    5.8870   19.5770 C.ar  1 UNL -0.0614
   7    C       -2.3060    6.5370   20.5220 C.ar  1 UNL -0.0506
   8    C       -2.3680    7.9270   20.5390 C.ar  1 UNL  0.0259
   9    C       -3.1890    8.6040   21.5250 C.ar  1 UNL  0.0124
  10    C       -4.0820    9.5980   21.2500 C.ar  1 UNL  0.0112
  11    N       -4.6450    9.9650   22.4370 N.ar  1 UNL -0.3455
  12    C       -4.1110    9.2110   23.4550 C.ar  1 UNL  0.1374
  13    N       -4.3030    9.1620   24.7830 N.ar  1 UNL -0.2379
  14    C       -3.6360    8.3020   25.5700 C.ar  1 UNL  0.0372
  15    C       -2.7020    7.4100   25.0500 C.ar  1 UNL  0.0023
  16    C       -1.9630    6.4650   25.8640 C.ar  1 UNL  0.0024
  17    C       -1.7320    5.1630   25.4340 C.ar  1 UNL  0.0347
  18    N       -1.0450    4.3020   26.2010 N.ar  1 UNL -0.2633
  19    C       -0.5610    4.6650   27.3980 C.ar  1 UNL  0.0396
  20    C       -0.7630    5.9550   27.8770 C.ar  1 UNL  0.0584
  21    C       -0.2390    6.3750   29.1930 C.2   1 UNL  0.2544
  22    O        0.9750    6.7090   29.2850 O.2   1 UNL -0.2690
  23    N       -1.0780    6.4210   30.3650 N.am  1 UNL -0.3447
  24    C       -1.6730    5.1790   30.8630 C.3   1 UNL  0.0091
  25    C       -1.2060    7.6600   31.1410 C.3   1 UNL  0.0091
  26    C       -1.4720    6.8670   27.1010 C.ar  1 UNL -0.0384
  27    C       -2.4780    7.4350   23.6790 C.ar  1 UNL -0.0411
  28    C       -3.1970    8.3450   22.9150 C.ar  1 UNL  0.0273
  29    H       -0.3667   11.5713   19.2234 H     1 UNL  0.0669
  30    H       -0.3342   10.2170   18.0438 H     1 UNL  0.0669
  31    H       -1.7072   11.3753   18.0438 H     1 UNL  0.0669
  32    H       -0.2782    8.6019   17.9349 H     1 UNL  0.0662
  33    H       -0.1691    6.1133   17.9029 H     1 UNL  0.0624
  34    H       -1.4715    4.7881   19.5627 H     1 UNL  0.0623
  35    H       -2.8795    5.9520   21.2561 H     1 UNL  0.0631
  36    H       -4.3054   10.0225   20.2601 H     1 UNL  0.0823
  37    H       -5.3613   10.6960   22.5530 H     1 UNL  0.1675
  38    H       -3.8325    8.3024   26.6523 H     1 UNL  0.0847
  39    H       -2.1157    4.8357   24.4564 H     1 UNL  0.0847
  40    H       -0.0009    3.9381   28.0045 H     1 UNL  0.0848
  41    H       -1.6696    5.1861   31.9630 H     1 UNL  0.0457
  42    H       -2.7082    5.0970   30.5000 H     1 UNL  0.0457
  43    H       -1.0882    4.3210   30.5000 H     1 UNL  0.0457
  44    H       -1.1816    7.4241   32.2151 H     1 UNL  0.0457
  45    H       -0.3728    8.3346   30.8948 H     1 UNL  0.0457
  46    H       -2.1595    8.1500   30.8948 H     1 UNL  0.0457
  47    H       -1.6417    7.8923   27.4615 H     1 UNL  0.0639
  48    H       -1.7518    6.7534   23.2120 H     1 UNL  0.0638
@<TRIPOS>BOND
    1     2     1  1
    2     3     2  1
    3     4     3 ar
    4     5     4 ar
    5     6     5 ar
    6     7     6 ar
    7     8     7 ar
    8     8     3 ar
    9     9     8  1
   10    10     9 ar
   11    11    10 ar
   12    12    11 ar
   13    13    12 ar
   14    14    13 ar
   15    15    14 ar
   16    16    15  1
   17    17    16 ar
   18    18    17 ar
   19    19    18 ar
   20    20    19 ar
   21    21    20  1
   22    22    21  2
   23    23    21 am
   24    24    23  1
   25    25    23  1
   26    26    16 ar
   27    26    20 ar
   28    27    15 ar
   29    28     9 ar
   30    28    27 ar
   31    28    12 ar
   32     1    29  1
   33     1    30  1
   34     1    31  1
   35     4    32  1
   36     5    33  1
   37     6    34  1
   38     7    35  1
   39    10    36  1
   40    11    37  1
   41    14    38  1
   42    17    39  1
   43    19    40  1
   44    24    41  1
   45    24    42  1
   46    24    43  1
   47    25    44  1
   48    25    45  1
   49    25    46  1
   50    26    47  1
   51    27    48  1