@<TRIPOS>MOLECULE
UNK
50 53 0 0 0
SMALL
GASTEIGER

@<TRIPOS>ATOM
   1    O       19.0990   35.5320   56.4760 O.2   1 UNL -0.2689
   2    C       19.6480   34.4330   56.1910 C.2   1 UNL  0.2567
   3    N       18.8200   33.2690   56.0310 N.am  1 UNL -0.3219
   4    C       19.2460   31.9240   56.3160 C.ar  1 UNL  0.0413
   5    C       18.6070   31.2000   57.3170 C.ar  1 UNL -0.0348
   6    C       19.0110   29.8980   57.6000 C.ar  1 UNL -0.0175
   7    C       20.0560   29.3390   56.8730 C.ar  1 UNL  0.1291
   8    O       20.4580   28.0780   57.1380 O.3   1 UNL -0.4058
   9    C       19.7860   27.1640   58.0020 C.3   1 UNL  0.5726
  10    F       18.5020   26.9310   57.5440 F     1 UNL -0.1323
  11    F       19.7150   27.7140   59.2670 F     1 UNL -0.1323
  12    F       20.4860   25.9730   58.0730 F     1 UNL -0.1323
  13    C       20.7020   30.0570   55.8700 C.ar  1 UNL -0.0175
  14    C       20.2900   31.3570   55.5940 C.ar  1 UNL -0.0348
  15    C       21.0840   34.3880   55.9930 C.ar  1 UNL  0.0588
  16    C       21.8930   33.5110   56.7090 C.ar  1 UNL  0.0421
  17    N       23.2200   33.4810   56.5130 N.ar  1 UNL -0.2378
  18    C       23.8160   34.2910   55.6250 C.ar  1 UNL  0.1362
  19    N       25.2030   34.2340   55.4460 N.2   1 UNL -0.3534
  20    C       26.0800   35.3510   55.0850 C.3   1 UNL  0.0218
  21    C       27.3780   35.0520   55.8070 C.3   1 UNL -0.0075
  22    C       27.3520   33.5680   56.1230 C.3   1 UNL  0.0732
  23    O       27.3950   33.4230   57.5210 O.3   1 UNL -0.3912
  24    C       26.0470   33.0450   55.5550 C.3   1 UNL  0.0453
  25    C       23.0550   35.1890   54.8820 C.ar  1 UNL  0.0282
  26    C       23.6630   36.0800   53.9130 C.ar  1 UNL  0.0221
  27    C       23.9650   35.6400   52.6290 C.ar  1 UNL  0.0382
  28    N       24.5250   36.4810   51.7470 N.ar  1 UNL -0.2442
  29    C       24.8050   37.7500   52.0790 C.ar  1 UNL  0.1148
  30    N       24.5240   38.1990   53.3110 N.ar  1 UNL -0.2442
  31    C       23.9630   37.4000   54.2300 C.ar  1 UNL  0.0382
  32    C       21.6770   35.2380   55.0660 C.ar  1 UNL -0.0362
  33    H       17.8580   33.4065   55.6897 H     1 UNL  0.1698
  34    H       17.7826   31.6559   57.8849 H     1 UNL  0.0646
  35    H       18.5095   29.3186   58.3892 H     1 UNL  0.0663
  36    H       21.5276   29.6022   55.3030 H     1 UNL  0.0663
  37    H       20.7905   31.9364   54.8042 H     1 UNL  0.0646
  38    H       21.4382   32.8328   57.4460 H     1 UNL  0.0849
  39    H       26.2380   35.3872   53.9970 H     1 UNL  0.0494
  40    H       25.6568   36.3269   55.3653 H     1 UNL  0.0494
  41    H       28.2369   35.2900   55.1623 H     1 UNL  0.0312
  42    H       27.4775   35.6557   56.7211 H     1 UNL  0.0312
  43    H       28.2004   33.0150   55.6937 H     1 UNL  0.0620
  44    H       27.1413   34.2786   57.9495 H     1 UNL  0.2105
  45    H       25.5947   32.3059   56.2326 H     1 UNL  0.0521
  46    H       26.1815   32.5332   54.5907 H     1 UNL  0.0521
  47    H       23.7447   34.6027   52.3368 H     1 UNL  0.0848
  48    H       25.2653   38.4227   51.3404 H     1 UNL  0.1062
  49    H       23.7402   37.7888   55.2346 H     1 UNL  0.0848
  50    H       21.0631   35.9415   54.4845 H     1 UNL  0.0640
@<TRIPOS>BOND
    1     2     1  2
    2     3     2 am
    3     4     3  1
    4     5     4 ar
    5     6     5 ar
    6     7     6 ar
    7     8     7  1
    8     9     8  1
    9    10     9  1
   10    11     9  1
   11    12     9  1
   12    13     7 ar
   13    14    13 ar
   14    14     4 ar
   15    15     2  1
   16    16    15 ar
   17    17    16 ar
   18    18    17 ar
   19    19    18  1
   20    20    19  1
   21    21    20  1
   22    22    21  1
   23    23    22  1
   24    24    19  1
   25    24    22  1
   26    25    18 ar
   27    26    25  1
   28    27    26 ar
   29    28    27 ar
   30    29    28 ar
   31    30    29 ar
   32    31    26 ar
   33    31    30 ar
   34    32    15 ar
   35    32    25 ar
   36     3    33  1
   37     5    34  1
   38     6    35  1
   39    13    36  1
   40    14    37  1
   41    16    38  1
   42    20    39  1
   43    20    40  1
   44    21    41  1
   45    21    42  1
   46    22    43  1
   47    23    44  1
   48    24    45  1
   49    24    46  1
   50    27    47  1
   51    29    48  1
   52    31    49  1
   53    32    50  1