@<TRIPOS>MOLECULE
UNK
47 50 0 0 0
SMALL
GASTEIGER

@<TRIPOS>ATOM
   1    C       12.4270   57.2120   12.4250 C.3   1 UNL -0.0377
   2    C       12.2990   58.7060   12.6730 C.ar  1 UNL -0.0273
   3    C       11.0760   59.3220   12.4270 C.ar  1 UNL -0.0552
   4    C       10.9290   60.6890   12.6450 C.ar  1 UNL -0.0381
   5    C       12.0140   61.4250   13.1090 C.ar  1 UNL  0.0431
   6    N       11.8730   62.8380   13.3380 N.am  1 UNL -0.3219
   7    C       12.0890   63.4690   14.6150 C.2   1 UNL  0.2567
   8    O       12.4220   62.7720   15.6120 O.2   1 UNL -0.2689
   9    C       11.9360   64.9340   14.7860 C.ar  1 UNL  0.0580
  10    C       10.9730   65.6120   14.0460 C.ar  1 UNL -0.0464
  11    C       10.8320   66.9860   14.2100 C.ar  1 UNL -0.0430
  12    C       11.6630   67.6400   15.1130 C.ar  1 UNL  0.0268
  13    N       12.5850   66.9640   15.8150 N.ar  1 UNL -0.2639
  14    C       12.7400   65.6390   15.6760 C.ar  1 UNL  0.0395
  15    C       13.2400   60.8170   13.3580 C.ar  1 UNL -0.0145
  16    C       13.3790   59.4500   13.1370 C.ar  1 UNL  0.0459
  17    N       14.6070   58.8230   13.3830 N.pl3 1 UNL -0.3238
  18    C       14.9010   58.0960   14.5840 C.ar  1 UNL  0.2272
  19    N       13.8970   57.7940   15.4200 N.ar  1 UNL -0.2213
  20    C       14.1120   57.1160   16.5570 C.ar  1 UNL  0.0330
  21    C       15.4040   56.7150   16.8810 C.ar  1 UNL -0.0171
  22    C       16.4390   57.0320   16.0080 C.ar  1 UNL  0.0773
  23    C       17.7900   56.6170   16.3390 C.ar  1 UNL  0.0187
  24    C       18.4500   57.2210   17.4040 C.ar  1 UNL -0.0497
  25    C       19.7430   56.8200   17.7180 C.ar  1 UNL -0.0431
  26    C       20.3380   55.8230   16.9530 C.ar  1 UNL  0.0268
  27    N       19.6820   55.2550   15.9300 N.ar  1 UNL -0.2640
  28    C       18.4330   55.6240   15.6070 C.ar  1 UNL  0.0362
  29    N       16.1520   57.7130   14.8860 N.ar  1 UNL -0.2127
  30    H       12.4723   56.6830   13.3884 H     1 UNL  0.0280
  31    H       11.5558   56.8592   11.8536 H     1 UNL  0.0280
  32    H       13.3455   57.0125   11.8536 H     1 UNL  0.0280
  33    H       10.2253   58.7289   12.0603 H     1 UNL  0.0627
  34    H        9.9647   61.1819   12.4523 H     1 UNL  0.0645
  35    H       11.6018   63.4335   12.5426 H     1 UNL  0.1698
  36    H       10.3300   65.0675   13.3388 H     1 UNL  0.0632
  37    H       10.0776   67.5445   13.6364 H     1 UNL  0.0639
  38    H       11.5630   68.7264   15.2536 H     1 UNL  0.0840
  39    H       13.5029   65.1097   16.2658 H     1 UNL  0.0848
  40    H       14.0903   61.4101   13.7256 H     1 UNL  0.0667
  41    H       15.3394   58.8875   12.6617 H     1 UNL  0.1697
  42    H       13.2733   56.8789   17.2281 H     1 UNL  0.0842
  43    H       15.6029   56.1585   17.8088 H     1 UNL  0.0662
  44    H       17.9538   58.0076   17.9914 H     1 UNL  0.0631
  45    H       20.2854   57.2825   18.5558 H     1 UNL  0.0639
  46    H       21.3610   55.4954   17.1900 H     1 UNL  0.0840
  47    H       17.9176   55.1414   14.7635 H     1 UNL  0.0847
@<TRIPOS>BOND
    1     2     1  1
    2     3     2 ar
    3     4     3 ar
    4     5     4 ar
    5     6     5  1
    6     7     6 am
    7     8     7  2
    8     9     7  1
    9    10     9 ar
   10    11    10 ar
   11    12    11 ar
   12    13    12 ar
   13    14     9 ar
   14    14    13 ar
   15    15     5 ar
   16    16     2 ar
   17    16    15 ar
   18    17    16  1
   19    18    17  1
   20    19    18 ar
   21    20    19 ar
   22    21    20 ar
   23    22    21 ar
   24    23    22  1
   25    24    23 ar
   26    25    24 ar
   27    26    25 ar
   28    27    26 ar
   29    28    27 ar
   30    28    23 ar
   31    29    18 ar
   32    29    22 ar
   33     1    30  1
   34     1    31  1
   35     1    32  1
   36     3    33  1
   37     4    34  1
   38     6    35  1
   39    10    36  1
   40    11    37  1
   41    12    38  1
   42    14    39  1
   43    15    40  1
   44    17    41  1
   45    20    42  1
   46    21    43  1
   47    24    44  1
   48    25    45  1
   49    26    46  1
   50    28    47  1