@<TRIPOS>MOLECULE
UNK
20 20 0 0 0
SMALL
GASTEIGER

@<TRIPOS>ATOM
   1    C       -0.6690   68.2830   26.4960 C.3   1 UNL  0.0810
   2    O       -0.7550   67.1610   25.6250 O.3   1 UNL -0.4654
   3    C       -0.0270   65.9850   25.8350 C.2   1 UNL  0.3395
   4    O        0.7500   65.8910   26.8250 O.2   1 UNL -0.2461
   5    C       -0.2050   64.8500   24.9500 C.ar  1 UNL  0.0826
   6    C       -0.8180   65.0570   23.7180 C.ar  1 UNL -0.0441
   7    C       -1.0030   63.9890   22.8460 C.ar  1 UNL -0.0425
   8    C       -0.5720   62.7190   23.2170 C.ar  1 UNL  0.0426
   9   Cl       -0.8070   61.3490   22.1050 Cl    1 UNL -0.0843
  10    C        0.0400   62.5060   24.4480 C.ar  1 UNL -0.0196
  11    C        0.2230   63.5780   25.3160 C.ar  1 UNL  0.0476
  12    N        0.8420   63.3440   26.5500 N.2   1 UNL -0.3980
  13    H       -0.6954   67.9392   27.5406 H     1 UNL  0.0670
  14    H        0.2729   68.8199   26.3104 H     1 UNL  0.0670
  15    H       -1.5181   68.9572   26.3104 H     1 UNL  0.0670
  16    H       -1.1561   66.0645   23.4338 H     1 UNL  0.0633
  17    H       -1.4863   64.1472   21.8706 H     1 UNL  0.0639
  18    H        0.3765   61.4982   24.7329 H     1 UNL  0.0661
  19    H        0.9881   64.1223   27.2087 H     1 UNL  0.1562
  20    H        1.1513   62.3936   26.7990 H     1 UNL  0.1562
@<TRIPOS>BOND
    1     2     1  1
    2     3     2  1
    3     4     3  2
    4     5     3  1
    5     6     5 ar
    6     7     6 ar
    7     8     7 ar
    8     9     8  1
    9    10     8 ar
   10    11    10 ar
   11    11     5 ar
   12    12    11  1
   13     1    13  1
   14     1    14  1
   15     1    15  1
   16     6    16  1
   17     7    17  1
   18    10    18  1
   19    12    19  1
   20    12    20  1