@<TRIPOS>MOLECULE
UNK
40 42 0 0 0
SMALL
GASTEIGER

@<TRIPOS>ATOM
   1    N       26.0100   36.1700   55.8190 N.am  1 UNL -0.3656
   2    C       24.7750   35.5840   56.2390 C.2   1 UNL  0.2482
   3    O       24.0170   35.0740   55.3700 O.2   1 UNL -0.2696
   4    C       24.3870   35.5530   57.6350 C.ar  1 UNL  0.0397
   5    C       25.3640   35.5500   58.6250 C.ar  1 UNL -0.0494
   6    C       24.9730   35.5200   59.9600 C.ar  1 UNL -0.0608
   7    C       23.6280   35.4930   60.3120 C.ar  1 UNL -0.0528
   8    C       22.6670   35.4970   59.3050 C.ar  1 UNL  0.0011
   9    C       21.2610   35.4700   59.6600 C.ar  1 UNL  0.0757
  10    C       20.8750   34.8600   60.8490 C.ar  1 UNL  0.0072
  11    C       19.5230   34.8390   61.1800 C.ar  1 UNL  0.1338
  12    N       19.1230   34.2270   62.3740 N.pl3 1 UNL -0.3401
  13    C       19.7220   34.4910   63.6540 C.ar  1 UNL  0.0398
  14    C       18.9410   35.0070   64.6840 C.ar  1 UNL -0.0349
  15    C       19.5120   35.2660   65.9270 C.ar  1 UNL -0.0175
  16    C       20.8650   35.0040   66.1200 C.ar  1 UNL  0.1291
  17    O       21.4300   35.2520   67.3200 O.3   1 UNL -0.4058
  18    C       21.5020   34.3280   68.4040 C.3   1 UNL  0.5726
  19    F       22.2020   33.1980   68.0210 F     1 UNL -0.1323
  20    F       20.2210   33.9570   68.7630 F     1 UNL -0.1323
  21    F       22.1180   34.9180   69.4930 F     1 UNL -0.1323
  22    C       21.6530   34.4900   65.0960 C.ar  1 UNL -0.0175
  23    C       21.0740   34.2330   63.8570 C.ar  1 UNL -0.0349
  24    N       18.6380   35.4060   60.3470 N.ar  1 UNL -0.2193
  25    C       19.0250   35.9920   59.2030 C.ar  1 UNL  0.1180
  26    N       20.3250   36.0190   58.8710 N.ar  1 UNL -0.2362
  27    C       23.0360   35.5270   57.9640 C.ar  1 UNL -0.0400
  28    H       26.6426   36.5916   56.5139 H     1 UNL  0.1595
  29    H       26.2669   36.1705   54.8216 H     1 UNL  0.1595
  30    H       26.4305   35.5710   58.3564 H     1 UNL  0.0631
  31    H       25.7395   35.5176   60.7490 H     1 UNL  0.0623
  32    H       23.3281   35.4689   61.3700 H     1 UNL  0.0630
  33    H       21.6228   34.4035   61.5141 H     1 UNL  0.0685
  34    H       18.3518   33.5454   62.3328 H     1 UNL  0.1681
  35    H       17.8730   35.2101   64.5160 H     1 UNL  0.0646
  36    H       18.9012   35.6727   66.7465 H     1 UNL  0.0663
  37    H       22.7214   34.2889   65.2634 H     1 UNL  0.0663
  38    H       21.6852   33.8259   63.0381 H     1 UNL  0.0646
  39    H       18.2774   36.4496   58.5384 H     1 UNL  0.1064
  40    H       22.2698   35.5301   57.1748 H     1 UNL  0.0638
@<TRIPOS>BOND
    1     2     1 am
    2     3     2  2
    3     4     2  1
    4     5     4 ar
    5     6     5 ar
    6     7     6 ar
    7     8     7 ar
    8     9     8  1
    9    10     9 ar
   10    11    10 ar
   11    12    11  1
   12    13    12  1
   13    14    13 ar
   14    15    14 ar
   15    16    15 ar
   16    17    16  1
   17    18    17  1
   18    19    18  1
   19    20    18  1
   20    21    18  1
   21    22    16 ar
   22    23    22 ar
   23    23    13 ar
   24    24    11 ar
   25    25    24 ar
   26    26    25 ar
   27    26     9 ar
   28    27     8 ar
   29    27     4 ar
   30     1    28  1
   31     1    29  1
   32     5    30  1
   33     6    31  1
   34     7    32  1
   35    10    33  1
   36    12    34  1
   37    14    35  1
   38    15    36  1
   39    22    37  1
   40    23    38  1
   41    25    39  1
   42    27    40  1