@<TRIPOS>MOLECULE
UNK
47 49 0 0 0
SMALL
GASTEIGER

@<TRIPOS>ATOM
   1    O       21.0840   33.2180   60.1530 O.2   1 UNL -0.2689
   2    C       21.6400   32.6630   61.1400 C.2   1 UNL  0.2552
   3    N       20.8480   32.2670   62.2720 N.am  1 UNL -0.3220
   4    C       19.4670   31.8730   62.1830 C.ar  1 UNL  0.0413
   5    C       18.7370   31.6600   63.3470 C.ar  1 UNL -0.0348
   6    C       17.4010   31.2780   63.2710 C.ar  1 UNL -0.0175
   7    C       16.8120   31.1150   62.0210 C.ar  1 UNL  0.1291
   8    O       15.5180   30.7440   61.9330 O.3   1 UNL -0.4058
   9    C       14.4460   31.5870   61.5140 C.3   1 UNL  0.5726
  10    F       14.6700   32.0390   60.2260 F     1 UNL -0.1323
  11    F       14.3750   32.6760   62.3620 F     1 UNL -0.1323
  12    F       13.2480   30.8990   61.5720 F     1 UNL -0.1323
  13    C       17.5350   31.3250   60.8510 C.ar  1 UNL -0.0175
  14    C       18.8700   31.7060   60.9370 C.ar  1 UNL -0.0348
  15    C       23.0780   32.4790   61.1380 C.ar  1 UNL  0.0402
  16    C       23.8070   32.7300   59.9800 C.ar  1 UNL -0.0494
  17    C       25.1860   32.5470   59.9970 C.ar  1 UNL -0.0610
  18    C       25.8370   32.1200   61.1500 C.ar  1 UNL -0.0534
  19    C       25.0890   31.8750   62.2970 C.ar  1 UNL  0.0070
  20    C       25.7860   31.4100   63.5550 C.3   1 UNL  0.1029
  21    N       26.7030   32.4330   64.0920 N.4   1 UNL -0.3274
  22    C       26.2650   33.7880   63.7270 C.3   1 UNL  0.1012
  23    C       27.2320   34.8210   64.2850 C.3   1 UNL  0.0960
  24    O       28.5480   34.5770   63.8090 O.3   1 UNL -0.3698
  25    C       29.0110   33.2780   64.1480 C.3   1 UNL  0.0960
  26    C       28.0690   32.2210   63.5920 C.3   1 UNL  0.1012
  27    C       23.7090   32.0510   62.3020 C.ar  1 UNL -0.0406
  28    H       21.2946   32.2651   63.2002 H     1 UNL  0.1698
  29    H       19.2157   31.7935   64.3283 H     1 UNL  0.0646
  30    H       16.8178   31.1070   64.1879 H     1 UNL  0.0663
  31    H       17.0565   31.1913   59.8696 H     1 UNL  0.0663
  32    H       19.4538   31.8753   60.0202 H     1 UNL  0.0646
  33    H       23.3003   33.0683   59.0641 H     1 UNL  0.0631
  34    H       25.7701   32.7427   59.0857 H     1 UNL  0.0623
  35    H       26.9278   31.9781   61.1546 H     1 UNL  0.0628
  36    H       25.0266   31.1795   64.3167 H     1 UNL  0.0979
  37    H       26.3816   30.5202   63.3030 H     1 UNL  0.0979
  38    H       26.6926   32.3425   65.1180 H     1 UNL  0.3480
  39    H       26.2317   33.8762   62.6310 H     1 UNL  0.0949
  40    H       25.2651   33.9677   64.1489 H     1 UNL  0.0949
  41    H       26.9124   35.8247   63.9680 H     1 UNL  0.0627
  42    H       27.2318   34.7527   65.3829 H     1 UNL  0.0627
  43    H       30.0151   33.1284   63.7244 H     1 UNL  0.0627
  44    H       29.0470   33.1851   65.2435 H     1 UNL  0.0627
  45    H       28.4179   31.2255   63.9037 H     1 UNL  0.0949
  46    H       28.0610   32.2942   62.4945 H     1 UNL  0.0949
  47    H       23.1249   31.8546   63.2132 H     1 UNL  0.0636
@<TRIPOS>BOND
    1     2     1  2
    2     3     2 am
    3     4     3  1
    4     5     4 ar
    5     6     5 ar
    6     7     6 ar
    7     8     7  1
    8     9     8  1
    9    10     9  1
   10    11     9  1
   11    12     9  1
   12    13     7 ar
   13    14    13 ar
   14    14     4 ar
   15    15     2  1
   16    16    15 ar
   17    17    16 ar
   18    18    17 ar
   19    19    18 ar
   20    20    19  1
   21    21    20  1
   22    22    21  1
   23    23    22  1
   24    24    23  1
   25    25    24  1
   26    26    21  1
   27    26    25  1
   28    27    19 ar
   29    27    15 ar
   30     3    28  1
   31     5    29  1
   32     6    30  1
   33    13    31  1
   34    14    32  1
   35    16    33  1
   36    17    34  1
   37    18    35  1
   38    20    36  1
   39    20    37  1
   40    21    38  1
   41    22    39  1
   42    22    40  1
   43    23    41  1
   44    23    42  1
   45    25    43  1
   46    25    44  1
   47    26    45  1
   48    26    46  1
   49    27    47  1