1FPU_PRC
     RDKit          3D

 29 32  0  0  0  0  0  0  0  0999 V2000
    1.8339    9.9355   34.5545 C   0  0  0  0  0  0  0  0  0  0  0  0
    1.2384    9.3960   33.2823 C   0  0  0  0  0  0  0  0  0  0  0  0
    1.9668    8.4731   32.5150 C   0  0  0  0  0  0  0  0  0  0  0  0
    1.4358    7.9561   31.3323 C   0  0  0  0  0  0  0  0  0  0  0  0
    0.1523    8.3315   30.9075 C   0  0  0  0  0  0  0  0  0  0  0  0
   -0.4118    7.8245   29.6859 N   0  0  0  0  0  0  0  0  0  0  0  0
   -0.2566    6.4653   29.2345 C   0  0  0  0  0  0  0  0  0  0  0  0
    0.3214    5.6204   29.9716 O   0  0  0  0  0  0  0  0  0  0  0  0
   -0.7722    6.0282   27.9142 C   0  0  0  0  0  0  0  0  0  0  0  0
   -1.8876    6.6393   27.3141 C   0  0  0  0  0  0  0  0  0  0  0  0
   -2.3470    6.1957   26.0726 C   0  0  0  0  0  0  0  0  0  0  0  0
   -1.6948    5.1385   25.4385 C   0  0  0  0  0  0  0  0  0  0  0  0
   -0.6261    4.5456   26.0316 N   0  0  0  0  0  0  0  0  0  0  0  0
   -0.1588    4.9573   27.2404 C   0  0  0  0  0  0  0  0  0  0  0  0
   -0.5721    9.2637   31.6619 C   0  0  0  0  0  0  0  0  0  0  0  0
   -0.0423    9.8043   32.8471 C   0  0  0  0  0  0  0  0  0  0  0  0
   -0.8228   10.7230   33.6330 N   0  0  0  0  0  0  0  0  0  0  0  0
   -1.5843   11.8006   33.0707 C   0  0  0  0  0  0  0  0  0  0  0  0
   -1.4353   12.1518   31.7651 N   0  0  0  0  0  0  0  0  0  0  0  0
   -2.1334   13.1878   31.2358 C   0  0  0  0  0  0  0  0  0  0  0  0
   -3.0153   13.9150   32.0334 C   0  0  0  0  0  0  0  0  0  0  0  0
   -3.1637   13.5506   33.3813 C   0  0  0  0  0  0  0  0  0  0  0  0
   -4.0754   14.2846   34.2966 C   0  0  0  0  0  0  0  0  0  0  0  0
   -3.8196   14.3058   35.6788 C   0  0  0  0  0  0  0  0  0  0  0  0
   -4.6761   14.9889   36.5436 C   0  0  0  0  0  0  0  0  0  0  0  0
   -5.7929   15.6427   36.0245 C   0  0  0  0  0  0  0  0  0  0  0  0
   -6.0419   15.6064   34.6896 N   0  0  0  0  0  0  0  0  0  0  0  0
   -5.2224   14.9514   33.8242 C   0  0  0  0  0  0  0  0  0  0  0  0
   -2.4335   12.5069   33.8634 N   0  0  0  0  0  0  0  0  0  0  0  0
  1  2  1  0
  2  3  2  0
  3  4  1  0
  4  5  2  0
  5  6  1  0
  6  7  1  0
  7  8  2  0
  7  9  1  0
  9 10  2  0
 10 11  1  0
 11 12  2  0
 12 13  1  0
 13 14  2  0
  5 15  1  0
 15 16  2  0
 16 17  1  0
 17 18  1  0
 18 19  2  0
 19 20  1  0
 20 21  2  0
 21 22  1  0
 22 23  1  0
 23 24  2  0
 24 25  1  0
 25 26  2  0
 26 27  1  0
 27 28  2  0
 22 29  2  0
 16  2  1  0
 29 18  1  0
 14  9  1  0
 28 23  1  0
M  END
$$$$
6HD6_FYH
     RDKit          3D

 27 29  0  0  0  0  0  0  0  0999 V2000
   -0.5467    9.1871   15.5506 O   0  0  0  0  0  0  0  0  0  0  0  0
    0.0091    9.9632   16.3756 C   0  0  0  0  0  0  0  0  0  0  0  0
   -0.3212    9.8721   17.7719 N   0  0  0  0  0  0  0  0  0  0  0  0
   -0.8814    8.6979   18.3853 C   0  0  0  0  0  0  0  0  0  0  0  0
   -0.5644    7.4080   17.9252 C   0  0  0  0  0  0  0  0  0  0  0  0
   -1.1040    6.2819   18.5532 C   0  0  0  0  0  0  0  0  0  0  0  0
   -1.9558    6.4188   19.6551 C   0  0  0  0  0  0  0  0  0  0  0  0
   -2.4700    5.2525   20.2445 O   0  0  0  0  0  0  0  0  0  0  0  0
   -3.3460    5.2149   21.3691 C   0  0  0  0  0  0  0  0  0  0  0  0
   -2.7354    5.7912   22.4685 F   0  0  0  0  0  0  0  0  0  0  0  0
   -3.6415    3.8980   21.6633 F   0  0  0  0  0  0  0  0  0  0  0  0
   -4.5228    5.8818   21.0793 F   0  0  0  0  0  0  0  0  0  0  0  0
   -2.2585    7.7094   20.1295 C   0  0  0  0  0  0  0  0  0  0  0  0
   -1.7181    8.8359   19.5020 C   0  0  0  0  0  0  0  0  0  0  0  0
    0.9577   10.9924   15.8843 C   0  0  0  0  0  0  0  0  0  0  0  0
    1.8730   11.6065   16.7582 C   0  0  0  0  0  0  0  0  0  0  0  0
    2.7682   12.5682   16.2840 C   0  0  0  0  0  0  0  0  0  0  0  0
    2.7664   12.9261   14.9350 C   0  0  0  0  0  0  0  0  0  0  0  0
    1.8678   12.3196   14.0444 C   0  0  0  0  0  0  0  0  0  0  0  0
    1.8754   12.6893   12.5783 C   0  0  0  0  0  0  0  0  0  0  0  0
    2.4875   11.6284   11.7366 N   0  0  0  0  0  4  0  0  0  0  0  0
    3.9419   11.4643   11.9734 C   0  0  0  0  0  0  0  0  0  0  0  0
    4.7636   12.5841   11.3118 C   0  0  0  0  0  0  0  0  0  0  0  0
    4.4927   12.6565    9.9271 O   0  0  0  0  0  0  0  0  0  0  0  0
    3.1294   12.9671    9.7253 C   0  0  0  0  0  0  0  0  0  0  0  0
    2.2273   11.8605   10.2973 C   0  0  0  0  0  0  0  0  0  0  0  0
    0.9696   11.3520   14.5236 C   0  0  0  0  0  0  0  0  0  0  0  0
  1  2  2  0
  2  3  1  0
  3  4  1  0
  4  5  2  0
  5  6  1  0
  6  7  2  0
  7  8  1  0
  8  9  1  0
  9 10  1  0
  9 11  1  0
  9 12  1  0
  7 13  1  0
 13 14  2  0
  2 15  1  0
 15 16  2  0
 16 17  1  0
 17 18  2  0
 18 19  1  0
 19 20  1  0
 20 21  1  0
 21 22  1  0
 22 23  1  0
 23 24  1  0
 24 25  1  0
 25 26  1  0
 19 27  2  0
 14  4  1  0
 27 15  1  0
 26 21  1  0
M  CHG  1  21   1
M  END
$$$$
6HD4_FYW
     RDKit          3D

 32 35  0  0  0  0  0  0  0  0999 V2000
    1.4291   -3.9678    1.4671 O   0  0  0  0  0  0  0  0  0  0  0  0
    1.5994   -2.8828    0.8487 C   0  0  0  0  0  0  0  0  0  0  0  0
    2.6797   -2.7866   -0.0939 N   0  0  0  0  0  0  0  0  0  0  0  0
    3.4464   -1.5926   -0.3322 C   0  0  0  0  0  0  0  0  0  0  0  0
    3.6040   -0.6106    0.6616 C   0  0  0  0  0  0  0  0  0  0  0  0
    4.3403    0.5486    0.4010 C   0  0  0  0  0  0  0  0  0  0  0  0
    4.9472    0.7374   -0.8554 C   0  0  0  0  0  0  0  0  0  0  0  0
    5.6911    1.8848   -1.1749 O   0  0  0  0  0  0  0  0  0  0  0  0
    5.9137    2.9911   -0.3032 C   0  0  0  0  0  0  0  0  0  0  0  0
    4.7073    3.5647    0.0570 F   0  0  0  0  0  0  0  0  0  0  0  0
    6.6762    3.9352   -0.9630 F   0  0  0  0  0  0  0  0  0  0  0  0
    6.5959    2.5778    0.8271 F   0  0  0  0  0  0  0  0  0  0  0  0
    4.8111   -0.2553   -1.8325 C   0  0  0  0  0  0  0  0  0  0  0  0
    4.0729   -1.4133   -1.5728 C   0  0  0  0  0  0  0  0  0  0  0  0
    0.6577   -1.7609    1.0807 C   0  0  0  0  0  0  0  0  0  0  0  0
    0.0144   -1.6200    2.3167 C   0  0  0  0  0  0  0  0  0  0  0  0
   -0.8369   -0.5846    2.5317 N   0  0  0  0  0  0  0  0  0  0  0  0
   -1.1044    0.3512    1.5806 C   0  0  0  0  0  0  0  0  0  0  0  0
   -2.0605    1.3832    1.8719 N   0  0  0  0  0  0  0  0  0  0  0  0
   -2.0955    2.0659    3.1543 C   0  0  0  0  0  0  0  0  0  0  0  0
   -3.3257    2.9618    3.1097 C   0  0  0  0  0  0  0  0  0  0  0  0
   -4.2137    2.3721    2.0086 C   0  0  0  0  0  0  0  0  0  0  0  0
   -4.9272    3.3630    1.3106 O   0  0  0  0  0  0  0  0  0  0  0  0
   -3.2773    1.5766    1.0971 C   0  0  0  0  0  0  0  0  0  0  0  0
   -0.4684    0.2635    0.3221 C   0  0  0  0  0  0  0  0  0  0  0  0
   -0.6140    1.3139   -0.7103 C   0  0  0  0  0  0  0  0  0  0  0  0
   -0.3781    2.6621   -0.4083 C   0  0  0  0  0  0  0  0  0  0  0  0
   -0.5012    3.6075   -1.3754 N   0  0  0  0  0  0  0  0  0  0  0  0
   -0.8457    3.2677   -2.6442 C   0  0  0  0  0  0  0  0  0  0  0  0
   -1.0673    1.9666   -2.9644 N   0  0  0  0  0  0  0  0  0  0  0  0
   -0.9543    0.9881   -2.0294 C   0  0  0  0  0  0  0  0  0  0  0  0
    0.3906   -0.8179    0.0777 C   0  0  0  0  0  0  0  0  0  0  0  0
  1  2  2  0
  2  3  1  0
  3  4  1  0
  4  5  2  0
  5  6  1  0
  6  7  2  0
  7  8  1  0
  8  9  1  0
  9 10  1  0
  9 11  1  0
  9 12  1  0
  7 13  1  0
 13 14  2  0
  2 15  1  0
 15 16  2  0
 16 17  1  0
 17 18  2  0
 18 19  1  0
 19 20  1  0
 20 21  1  0
 21 22  1  0
 22 23  1  0
 22 24  1  0
 18 25  1  0
 25 26  1  0
 26 27  2  0
 27 28  1  0
 28 29  2  0
 29 30  1  0
 30 31  2  0
 25 32  2  0
 14  4  1  0
 32 15  1  0
 24 19  1  0
 31 26  1  0
M  END
$$$$
2QOH_P3Y
     RDKit          3D

 28 31  0  0  0  0  0  0  0  0999 V2000
    0.7056    7.2659   20.8724 C   0  0  0  0  0  0  0  0  0  0  0  0
   -0.6612    7.6602   20.9222 O   0  0  0  0  0  0  0  0  0  0  0  0
   -1.6772    7.1277   20.1112 C   0  0  0  0  0  0  0  0  0  0  0  0
   -1.3977    6.1918   19.0948 C   0  0  0  0  0  0  0  0  0  0  0  0
   -2.4191    5.7190   18.2681 C   0  0  0  0  0  0  0  0  0  0  0  0
   -3.7263    6.1736   18.4402 C   0  0  0  0  0  0  0  0  0  0  0  0
   -4.0199    7.0930   19.4485 C   0  0  0  0  0  0  0  0  0  0  0  0
   -3.0076    7.5613   20.3021 C   0  0  0  0  0  0  0  0  0  0  0  0
   -3.3552    8.5200   21.3721 C   0  0  0  0  0  0  0  0  0  0  0  0
   -4.1568    9.6538   21.2371 C   0  0  0  0  0  0  0  0  0  0  0  0
   -4.2740   10.2968   22.4218 N   0  0  0  0  0  0  0  0  0  0  0  0
   -3.5653    9.5693   23.2992 C   0  0  0  0  0  0  0  0  0  0  0  0
   -3.4322    9.8267   24.6228 N   0  0  0  0  0  0  0  0  0  0  0  0
   -2.7072    8.9680   25.3999 C   0  0  0  0  0  0  0  0  0  0  0  0
   -2.1098    7.8059   24.8394 C   0  0  0  0  0  0  0  0  0  0  0  0
   -1.3271    6.8714   25.6868 C   0  0  0  0  0  0  0  0  0  0  0  0
   -0.1576    6.2645   25.1988 C   0  0  0  0  0  0  0  0  0  0  0  0
    0.5458    5.4034   25.9796 N   0  0  0  0  0  0  0  0  0  0  0  0
    0.1581    5.1024   27.2462 C   0  0  0  0  0  0  0  0  0  0  0  0
   -0.9883    5.6943   27.7928 C   0  0  0  0  0  0  0  0  0  0  0  0
   -1.4208    5.3560   29.1656 C   0  0  0  0  0  0  0  0  0  0  0  0
   -1.3278    4.1592   29.5535 O   0  0  0  0  0  0  0  0  0  0  0  0
   -1.9337    6.3571   30.0681 N   0  0  0  0  0  0  0  0  0  0  0  0
   -2.8292    5.9456   31.1521 C   0  0  0  0  0  0  0  0  0  0  0  0
   -1.4434    7.7385   30.0038 C   0  0  0  0  0  0  0  0  0  0  0  0
   -1.7400    6.5675   26.9944 C   0  0  0  0  0  0  0  0  0  0  0  0
   -2.2746    7.5539   23.4585 C   0  0  0  0  0  0  0  0  0  0  0  0
   -2.9964    8.4784   22.7082 C   0  0  0  0  0  0  0  0  0  0  0  0
  1  2  1  0
  2  3  1  0
  3  4  2  0
  4  5  1  0
  5  6  2  0
  6  7  1  0
  7  8  2  0
  8  9  1  0
  9 10  2  0
 10 11  1  0
 11 12  1  0
 12 13  2  0
 13 14  1  0
 14 15  2  0
 15 16  1  0
 16 17  2  0
 17 18  1  0
 18 19  2  0
 19 20  1  0
 20 21  1  0
 21 22  2  0
 21 23  1  0
 23 24  1  0
 23 25  1  0
 20 26  2  0
 15 27  1  0
 27 28  2  0
  8  3  1  0
 28  9  1  0
 28 12  1  0
 26 16  1  0
M  END
$$$$
3KF4_B90
     RDKit          3D

 32 36  0  0  0  0  0  0  0  0999 V2000
   -2.0506    0.6307    2.7917 C   0  0  0  0  0  0  0  0  0  0  0  0
   -1.2227    0.2057    1.6079 C   0  0  0  0  0  0  0  0  0  0  0  0
   -1.0996   -1.1835    1.3342 C   0  0  0  0  0  0  0  0  0  0  0  0
   -0.3010   -1.6459    0.2747 C   0  0  0  0  0  0  0  0  0  0  0  0
    0.3602   -0.6978   -0.4951 C   0  0  0  0  0  0  0  0  0  0  0  0
    1.1679   -0.8999   -1.5470 N   0  0  0  0  0  0  0  0  0  0  0  0
    1.5712    0.2817   -1.9994 N   0  0  0  0  0  0  0  0  0  0  0  0
    1.0153    1.2472   -1.2284 C   0  0  0  0  0  0  0  0  0  0  0  0
    0.2397    0.6401   -0.2593 C   0  0  0  0  0  0  0  0  0  0  0  0
   -0.5631    1.1525    0.7654 C   0  0  0  0  0  0  0  0  0  0  0  0
   -0.6565    2.6174    0.9458 C   0  0  0  0  0  0  0  0  0  0  0  0
   -1.8334    3.2506    1.0127 C   0  0  0  0  0  0  0  0  0  0  0  0
   -1.9435    4.6762    1.1597 N   0  0  0  0  0  0  0  0  0  0  0  0
   -3.0441    5.3402    1.5972 C   0  0  0  0  0  0  0  0  0  0  0  0
   -2.8990    6.6934    1.5975 N   0  0  0  0  0  0  0  0  0  0  0  0
   -1.6488    6.8591    1.1282 C   0  0  0  0  0  0  0  0  0  0  0  0
   -0.9557    8.0377    0.8705 C   0  0  0  0  0  0  0  0  0  0  0  0
   -1.5539    9.3220    1.1094 N   0  0  0  0  0  0  0  0  0  0  0  0
   -0.8241   10.5604    1.1020 C   0  0  0  0  0  0  0  0  0  0  0  0
    0.4880   10.6407    1.6013 C   0  0  0  0  0  0  0  0  0  0  0  0
    1.1682   11.8619    1.6053 C   0  0  0  0  0  0  0  0  0  0  0  0
    0.5446   13.0194    1.1229 C   0  0  0  0  0  0  0  0  0  0  0  0
    1.4277   14.5836    1.1406 P   0  0  0  0  0  5  0  0  0  0  0  0
    1.8251   15.0312    2.8533 C   0  0  0  0  0  0  0  0  0  0  0  0
    2.9644   14.4237    0.1888 C   0  0  0  0  0  0  0  0  0  0  0  0
    0.5790   15.6748    0.5276 O   0  0  0  0  0  0  0  0  0  0  0  0
   -0.7724   12.9488    0.6493 C   0  0  0  0  0  0  0  0  0  0  0  0
   -1.4536   11.7279    0.6458 C   0  0  0  0  0  0  0  0  0  0  0  0
    0.2925    7.9241    0.3219 N   0  0  0  0  0  0  0  0  0  0  0  0
    0.8474    6.7006    0.0481 C   0  0  0  0  0  0  0  0  0  0  0  0
    0.1560    5.5520    0.3118 N   0  0  0  0  0  0  0  0  0  0  0  0
   -1.0773    5.6602    0.8636 C   0  0  0  0  0  0  0  0  0  0  0  0
  1  2  1  0
  2  3  2  0
  3  4  1  0
  4  5  2  0
  5  6  1  0
  6  7  1  0
  7  8  2  0
  8  9  1  0
  9 10  2  0
 10 11  1  0
 11 12  2  0
 12 13  1  0
 13 14  1  0
 14 15  2  0
 15 16  1  0
 16 17  2  0
 17 18  1  0
 18 19  1  0
 19 20  2  0
 20 21  1  0
 21 22  2  0
 22 23  1  0
 23 24  1  0
 23 25  1  0
 23 26  2  0
 22 27  1  0
 27 28  2  0
 17 29  1  0
 29 30  2  0
 30 31  1  0
 31 32  2  0
 10  2  1  0
 32 13  1  0
  9  5  1  0
 32 16  1  0
 28 19  1  0
M  END
$$$$
3MS9_MS9
     RDKit          3D

 12 12  0  0  0  0  0  0  0  0999 V2000
   -2.8128    2.4739    2.0955 C   0  0  0  0  0  0  0  0  0  0  0  0
   -1.8974    2.0217    1.1053 O   0  0  0  0  0  0  0  0  0  0  0  0
   -1.1314    0.8615    1.2585 C   0  0  0  0  0  0  0  0  0  0  0  0
   -1.2659    0.1469    2.2902 O   0  0  0  0  0  0  0  0  0  0  0  0
   -0.2046    0.4351    0.1865 C   0  0  0  0  0  0  0  0  0  0  0  0
   -0.0540   -0.9413   -0.0646 C   0  0  0  0  0  0  0  0  0  0  0  0
    0.7465   -1.3911   -1.1161 C   0  0  0  0  0  0  0  0  0  0  0  0
    1.4094   -0.4748   -1.9325 C   0  0  0  0  0  0  0  0  0  0  0  0
    2.4085   -1.0431   -3.2579 Cl  0  0  0  0  0  0  0  0  0  0  0  0
    1.2878    0.8946   -1.6859 C   0  0  0  0  0  0  0  0  0  0  0  0
    0.4999    1.3637   -0.6221 C   0  0  0  0  0  0  0  0  0  0  0  0
    0.4828    2.7715   -0.3492 N   0  0  0  0  0  0  0  0  0  0  0  0
  1  2  1  0
  2  3  1  0
  3  4  2  0
  3  5  1  0
  5  6  2  0
  6  7  1  0
  7  8  2  0
  8  9  1  0
  8 10  1  0
 10 11  2  0
 11 12  1  0
 11  5  1  0
M  END
$$$$
3K5V_STJ
     RDKit          3D

 27 29  0  0  0  0  0  0  0  0999 V2000
    0.7183   19.5826   17.5171 N   0  0  0  0  0  0  0  0  0  0  0  0
    0.9336   18.3679   18.2408 C   0  0  0  0  0  0  0  0  0  0  0  0
    0.9345   18.4032   19.5010 O   0  0  0  0  0  0  0  0  0  0  0  0
    1.1385   17.0747   17.5426 C   0  0  0  0  0  0  0  0  0  0  0  0
    1.6140   17.0304   16.2206 C   0  0  0  0  0  0  0  0  0  0  0  0
    1.8103   15.8054   15.5814 C   0  0  0  0  0  0  0  0  0  0  0  0
    1.5367   14.6102   16.2480 C   0  0  0  0  0  0  0  0  0  0  0  0
    1.0597   14.6256   17.5714 C   0  0  0  0  0  0  0  0  0  0  0  0
    0.7746   13.3649   18.3042 C   0  0  0  0  0  0  0  0  0  0  0  0
    0.3551   12.2014   17.6382 C   0  0  0  0  0  0  0  0  0  0  0  0
    0.0907   11.0491   18.3872 C   0  0  0  0  0  0  0  0  0  0  0  0
   -0.3116    9.8393   17.7241 N   0  0  0  0  0  0  0  0  0  0  0  0
   -0.8584    8.6946   18.4008 C   0  0  0  0  0  0  0  0  0  0  0  0
   -0.5745    7.4095   17.9189 C   0  0  0  0  0  0  0  0  0  0  0  0
   -1.1130    6.2826   18.5461 C   0  0  0  0  0  0  0  0  0  0  0  0
   -1.9574    6.4189   19.6538 C   0  0  0  0  0  0  0  0  0  0  0  0
   -2.4681    5.2523   20.2457 O   0  0  0  0  0  0  0  0  0  0  0  0
   -3.3383    5.2143   21.3747 C   0  0  0  0  0  0  0  0  0  0  0  0
   -2.7255    5.7983   22.4690 F   0  0  0  0  0  0  0  0  0  0  0  0
   -3.6250    3.8969   21.6755 F   0  0  0  0  0  0  0  0  0  0  0  0
   -4.5202    5.8736   21.0881 F   0  0  0  0  0  0  0  0  0  0  0  0
   -2.2641    7.7098   20.1255 C   0  0  0  0  0  0  0  0  0  0  0  0
   -1.7245    8.8371   19.4984 C   0  0  0  0  0  0  0  0  0  0  0  0
    0.2601   11.0767   19.7366 N   0  0  0  0  0  0  0  0  0  0  0  0
    0.6573   12.2081   20.3715 C   0  0  0  0  0  0  0  0  0  0  0  0
    0.9068   13.3360   19.6589 N   0  0  0  0  0  0  0  0  0  0  0  0
    0.8769   15.8652   18.2129 C   0  0  0  0  0  0  0  0  0  0  0  0
  1  2  1  0
  2  3  2  0
  2  4  1  0
  4  5  2  0
  5  6  1  0
  6  7  2  0
  7  8  1  0
  8  9  1  0
  9 10  2  0
 10 11  1  0
 11 12  1  0
 12 13  1  0
 13 14  2  0
 14 15  1  0
 15 16  2  0
 16 17  1  0
 17 18  1  0
 18 19  1  0
 18 20  1  0
 18 21  1  0
 16 22  1  0
 22 23  2  0
 11 24  2  0
 24 25  1  0
 25 26  2  0
  8 27  2  0
 27  4  1  0
 26  9  1  0
 23 13  1  0
M  END
$$$$
3K5V_STI
     RDKit          3D

 37 41  0  0  0  0  0  0  0  0999 V2000
    2.2677    0.7729    6.4712 C   0  0  0  0  0  0  0  0  0  0  0  0
    3.4329    1.1953    5.6182 C   0  0  0  0  0  0  0  0  0  0  0  0
    4.5595    1.7723    6.2255 C   0  0  0  0  0  0  0  0  0  0  0  0
    5.6581    2.1626    5.4586 C   0  0  0  0  0  0  0  0  0  0  0  0
    5.6639    1.9657    4.0732 C   0  0  0  0  0  0  0  0  0  0  0  0
    6.8160    2.3680    3.3092 N   0  0  0  0  0  0  0  0  0  0  0  0
    7.1621    1.8425    2.0174 C   0  0  0  0  0  0  0  0  0  0  0  0
    7.6753    2.6166    1.1653 O   0  0  0  0  0  0  0  0  0  0  0  0
    6.9731    0.4123    1.6762 C   0  0  0  0  0  0  0  0  0  0  0  0
    6.7421    0.0303    0.3444 C   0  0  0  0  0  0  0  0  0  0  0  0
    6.5407   -1.3134    0.0175 C   0  0  0  0  0  0  0  0  0  0  0  0
    6.5794   -2.3003    1.0150 C   0  0  0  0  0  0  0  0  0  0  0  0
    6.3625   -3.7567    0.6676 C   0  0  0  0  0  0  0  0  0  0  0  0
    7.6245   -4.5395    0.7360 N   0  0  0  0  0  4  0  0  0  0  0  0
    8.5700   -4.2117   -0.3712 C   0  0  0  0  0  0  0  0  0  0  0  0
    8.6755   -5.3124   -1.4477 C   0  0  0  0  0  0  0  0  0  0  0  0
    7.3554   -5.9123   -1.7114 N   0  0  0  0  0  4  0  0  0  0  0  0
    7.4447   -6.8698   -2.8274 C   0  0  0  0  0  0  0  0  0  0  0  0
    6.7933   -6.5682   -0.5021 C   0  0  0  0  0  0  0  0  0  0  0  0
    7.3476   -5.9906    0.8200 C   0  0  0  0  0  0  0  0  0  0  0  0
    6.8251   -1.9221    2.3437 C   0  0  0  0  0  0  0  0  0  0  0  0
    7.0262   -0.5787    2.6712 C   0  0  0  0  0  0  0  0  0  0  0  0
    4.5319    1.4044    3.4574 C   0  0  0  0  0  0  0  0  0  0  0  0
    3.4152    1.0127    4.2170 C   0  0  0  0  0  0  0  0  0  0  0  0
    2.2946    0.3737    3.5773 N   0  0  0  0  0  0  0  0  0  0  0  0
    1.7714    0.7701    2.3021 C   0  0  0  0  0  0  0  0  0  0  0  0
    2.1021    1.9714    1.7566 N   0  0  0  0  0  0  0  0  0  0  0  0
    1.5928    2.3599    0.5606 C   0  0  0  0  0  0  0  0  0  0  0  0
    0.7115    1.5267   -0.1263 C   0  0  0  0  0  0  0  0  0  0  0  0
    0.3697    0.2893    0.4430 C   0  0  0  0  0  0  0  0  0  0  0  0
   -0.5697   -0.6485   -0.2244 C   0  0  0  0  0  0  0  0  0  0  0  0
   -0.7201   -0.6766   -1.6234 C   0  0  0  0  0  0  0  0  0  0  0  0
   -1.6053   -1.5780   -2.2170 C   0  0  0  0  0  0  0  0  0  0  0  0
   -2.3336   -2.4533   -1.4121 C   0  0  0  0  0  0  0  0  0  0  0  0
   -2.1749   -2.4274   -0.0633 N   0  0  0  0  0  0  0  0  0  0  0  0
   -1.3190   -1.5606    0.5409 C   0  0  0  0  0  0  0  0  0  0  0  0
    0.9037   -0.0480    1.6495 N   0  0  0  0  0  0  0  0  0  0  0  0
  1  2  1  0
  2  3  2  0
  3  4  1  0
  4  5  2  0
  5  6  1  0
  6  7  1  0
  7  8  2  0
  7  9  1  0
  9 10  2  0
 10 11  1  0
 11 12  2  0
 12 13  1  0
 13 14  1  0
 14 15  1  0
 15 16  1  0
 16 17  1  0
 17 18  1  0
 17 19  1  0
 19 20  1  0
 12 21  1  0
 21 22  2  0
  5 23  1  0
 23 24  2  0
 24 25  1  0
 25 26  1  0
 26 27  2  0
 27 28  1  0
 28 29  2  0
 29 30  1  0
 30 31  1  0
 31 32  2  0
 32 33  1  0
 33 34  2  0
 34 35  1  0
 35 36  2  0
 30 37  2  0
 24  2  1  0
 37 26  1  0
 22  9  1  0
 36 31  1  0
 20 14  1  0
M  CHG  2  14   1  17   1
M  END
$$$$
3KFA_B91
     RDKit          3D

 41 46  0  0  0  0  0  0  0  0999 V2000
   -2.3231    4.1070    4.6024 C   0  0  0  0  0  0  0  0  0  0  0  0
   -1.0647    4.3834    3.8500 C   0  0  0  0  0  0  0  0  0  0  0  0
   -0.5289    3.5906    2.8617 C   0  0  0  0  0  0  0  0  0  0  0  0
    0.5583    4.2185    2.3758 N   0  0  0  0  0  0  0  0  0  0  0  0
    1.4201    3.7608    1.3151 C   0  0  0  0  0  0  0  0  0  0  0  0
    1.5681    2.3872    1.0707 C   0  0  0  0  0  0  0  0  0  0  0  0
    2.3474    1.9248   -0.0023 C   0  0  0  0  0  0  0  0  0  0  0  0
    2.4701    0.5185   -0.2864 N   0  0  0  0  0  0  0  0  0  0  0  0
    1.4820   -0.4680    0.0580 C   0  0  0  0  0  0  0  0  0  0  0  0
    1.8576   -1.6436    0.3134 O   0  0  0  0  0  0  0  0  0  0  0  0
    0.0366   -0.1462    0.0974 C   0  0  0  0  0  0  0  0  0  0  0  0
   -0.5152    0.7691   -0.8080 C   0  0  0  0  0  0  0  0  0  0  0  0
   -1.8590    1.1283   -0.7176 C   0  0  0  0  0  0  0  0  0  0  0  0
   -2.6865    0.5678    0.2686 C   0  0  0  0  0  0  0  0  0  0  0  0
   -4.1285    0.9989    0.3416 C   0  0  0  0  0  0  0  0  0  0  0  0
   -2.1480   -0.3785    1.1762 C   0  0  0  0  0  0  0  0  0  0  0  0
   -2.9875   -0.9526    2.2604 C   0  0  0  0  0  0  0  0  0  0  0  0
   -2.8217   -2.1997    2.7230 C   0  0  0  0  0  0  0  0  0  0  0  0
   -3.6408   -2.7503    3.7692 N   0  0  0  0  0  0  0  0  0  0  0  0
   -4.6106   -2.1592    4.5213 C   0  0  0  0  0  0  0  0  0  0  0  0
   -5.1706   -2.9977    5.4366 N   0  0  0  0  0  0  0  0  0  0  0  0
   -4.5076   -4.1503    5.2302 C   0  0  0  0  0  0  0  0  0  0  0  0
   -4.6452   -5.3759    5.8731 C   0  0  0  0  0  0  0  0  0  0  0  0
   -5.6009   -5.5675    6.9240 N   0  0  0  0  0  0  0  0  0  0  0  0
   -5.7159   -6.8423    7.6258 C   0  0  0  0  0  0  0  0  0  0  0  0
   -6.4612   -7.8996    6.8292 C   0  0  0  0  0  0  0  0  0  0  0  0
   -7.1399   -7.2123    8.0034 C   0  0  0  0  0  0  0  0  0  0  0  0
   -3.8330   -6.3973    5.4616 N   0  0  0  0  0  0  0  0  0  0  0  0
   -2.9170   -6.2238    4.4553 C   0  0  0  0  0  0  0  0  0  0  0  0
   -2.7923   -5.0134    3.8323 N   0  0  0  0  0  0  0  0  0  0  0  0
   -3.5977   -4.0026    4.2406 C   0  0  0  0  0  0  0  0  0  0  0  0
   -0.7857   -0.7258    1.0747 C   0  0  0  0  0  0  0  0  0  0  0  0
    3.0396    2.8505   -0.7934 C   0  0  0  0  0  0  0  0  0  0  0  0
    2.9084    4.2308   -0.5651 C   0  0  0  0  0  0  0  0  0  0  0  0
    3.6821    5.2201   -1.4013 C   0  0  0  0  0  0  0  0  0  0  0  0
    3.8971    4.7248   -2.6760 F   0  0  0  0  0  0  0  0  0  0  0  0
    2.9883    6.4126   -1.5139 F   0  0  0  0  0  0  0  0  0  0  0  0
    4.9034    5.4647   -0.8018 F   0  0  0  0  0  0  0  0  0  0  0  0
    2.1072    4.6765    0.5002 C   0  0  0  0  0  0  0  0  0  0  0  0
    0.6460    5.3755    3.0683 C   0  0  0  0  0  0  0  0  0  0  0  0
   -0.3408    5.5131    3.9796 N   0  0  0  0  0  0  0  0  0  0  0  0
  1  2  1  0
  2  3  2  0
  3  4  1  0
  4  5  1  0
  5  6  2  0
  6  7  1  0
  7  8  1  0
  8  9  1  0
  9 10  2  0
  9 11  1  0
 11 12  2  0
 12 13  1  0
 13 14  2  0
 14 15  1  0
 14 16  1  0
 16 17  1  0
 17 18  2  0
 18 19  1  0
 19 20  1  0
 20 21  2  0
 21 22  1  0
 22 23  2  0
 23 24  1  0
 24 25  1  0
 25 26  1  0
 26 27  1  0
 23 28  1  0
 28 29  2  0
 29 30  1  0
 30 31  2  0
 16 32  2  0
  7 33  2  0
 33 34  1  0
 34 35  1  0
 35 36  1  0
 35 37  1  0
 35 38  1  0
 34 39  2  0
  4 40  1  0
 40 41  2  0
 41  2  1  0
 39  5  1  0
 32 11  1  0
 31 19  1  0
 31 22  1  0
 27 25  1  0
M  END
$$$$
