1FPU_PRC
     RDKit          3D

 29 32  0  0  0  0  0  0  0  0999 V2000
    1.1751    2.3000    4.7481 C   0  0  0  0  0  0  0  0  0  0  0  0
    0.1658    2.0131    3.6695 C   0  0  0  0  0  0  0  0  0  0  0  0
   -0.8324    2.9603    3.3884 C   0  0  0  0  0  0  0  0  0  0  0  0
   -1.7624    2.7334    2.3726 C   0  0  0  0  0  0  0  0  0  0  0  0
   -1.7407    1.5398    1.6416 C   0  0  0  0  0  0  0  0  0  0  0  0
   -2.6610    1.3623    0.5486 N   0  0  0  0  0  0  0  0  0  0  0  0
   -2.8504    0.1135   -0.1316 C   0  0  0  0  0  0  0  0  0  0  0  0
   -3.0754   -0.9283    0.5431 O   0  0  0  0  0  0  0  0  0  0  0  0
   -2.7883    0.0371   -1.6112 C   0  0  0  0  0  0  0  0  0  0  0  0
   -2.3523    1.1318   -2.3778 C   0  0  0  0  0  0  0  0  0  0  0  0
   -2.2734    1.0289   -3.7676 C   0  0  0  0  0  0  0  0  0  0  0  0
   -2.6223   -0.1713   -4.3860 C   0  0  0  0  0  0  0  0  0  0  0  0
   -3.0364   -1.2264   -3.6372 N   0  0  0  0  0  0  0  0  0  0  0  0
   -3.1256   -1.1521   -2.2823 C   0  0  0  0  0  0  0  0  0  0  0  0
   -0.7667    0.5734    1.9450 C   0  0  0  0  0  0  0  0  0  0  0  0
    0.2116    0.8106    2.9279 C   0  0  0  0  0  0  0  0  0  0  0  0
    1.2399   -0.1688    3.1796 N   0  0  0  0  0  0  0  0  0  0  0  0
    1.8978   -0.9155    2.1435 C   0  0  0  0  0  0  0  0  0  0  0  0
    2.7898   -1.8861    2.4727 N   0  0  0  0  0  0  0  0  0  0  0  0
    3.4272   -2.6033    1.5115 C   0  0  0  0  0  0  0  0  0  0  0  0
    3.1658   -2.3555    0.1632 C   0  0  0  0  0  0  0  0  0  0  0  0
    2.2403   -1.3540   -0.1707 C   0  0  0  0  0  0  0  0  0  0  0  0
    1.8748   -1.0438   -1.5779 C   0  0  0  0  0  0  0  0  0  0  0  0
    1.9802   -2.0031   -2.6022 C   0  0  0  0  0  0  0  0  0  0  0  0
    1.5920   -1.6856   -3.9052 C   0  0  0  0  0  0  0  0  0  0  0  0
    1.0964   -0.4120   -4.1813 C   0  0  0  0  0  0  0  0  0  0  0  0
    0.9894    0.5056   -3.1860 N   0  0  0  0  0  0  0  0  0  0  0  0
    1.3559    0.2223   -1.9079 C   0  0  0  0  0  0  0  0  0  0  0  0
    1.6496   -0.6520    0.8327 N   0  0  0  0  0  0  0  0  0  0  0  0
  1  2  1  0
  2  3  2  0
  3  4  1  0
  4  5  2  0
  5  6  1  0
  6  7  1  0
  7  8  2  0
  7  9  1  0
  9 10  2  0
 10 11  1  0
 11 12  2  0
 12 13  1  0
 13 14  2  0
  5 15  1  0
 15 16  2  0
 16 17  1  0
 17 18  1  0
 18 19  2  0
 19 20  1  0
 20 21  2  0
 21 22  1  0
 22 23  1  0
 23 24  2  0
 24 25  1  0
 25 26  2  0
 26 27  1  0
 27 28  2  0
 22 29  2  0
 16  2  1  0
 29 18  1  0
 14  9  1  0
 28 23  1  0
M  END
$$$$
6HD6_FYH
     RDKit          3D

 27 29  0  0  0  0  0  0  0  0999 V2000
   17.8547   15.8945   53.6755 O   0  0  0  0  0  0  0  0  0  0  0  0
   16.9187   15.0855   53.9229 C   0  0  0  0  0  0  0  0  0  0  0  0
   17.2141   13.8260   54.5502 N   0  0  0  0  0  0  0  0  0  0  0  0
   18.3911   13.5838   55.3405 C   0  0  0  0  0  0  0  0  0  0  0  0
   18.9255   12.2891   55.4023 C   0  0  0  0  0  0  0  0  0  0  0  0
   20.0559   12.0251   56.1806 C   0  0  0  0  0  0  0  0  0  0  0  0
   20.6641   13.0438   56.9225 C   0  0  0  0  0  0  0  0  0  0  0  0
   21.7982   12.7217   57.6855 O   0  0  0  0  0  0  0  0  0  0  0  0
   22.5334   13.6367   58.4954 C   0  0  0  0  0  0  0  0  0  0  0  0
   23.5832   12.9645   59.0907 F   0  0  0  0  0  0  0  0  0  0  0  0
   23.0435   14.6597   57.7163 F   0  0  0  0  0  0  0  0  0  0  0  0
   21.7194   14.1581   59.4850 F   0  0  0  0  0  0  0  0  0  0  0  0
   20.1179   14.3409   56.8795 C   0  0  0  0  0  0  0  0  0  0  0  0
   18.9876   14.6056   56.0999 C   0  0  0  0  0  0  0  0  0  0  0  0
   15.5334   15.4260   53.5170 C   0  0  0  0  0  0  0  0  0  0  0  0
   15.3033   16.4360   52.5656 C   0  0  0  0  0  0  0  0  0  0  0  0
   14.0008   16.7709   52.1884 C   0  0  0  0  0  0  0  0  0  0  0  0
   12.9125   16.1083   52.7578 C   0  0  0  0  0  0  0  0  0  0  0  0
   13.1189   15.1012   53.7116 C   0  0  0  0  0  0  0  0  0  0  0  0
   11.9364   14.4120   54.3529 C   0  0  0  0  0  0  0  0  0  0  0  0
   11.2952   15.2596   55.3853 N   0  0  0  0  0  4  0  0  0  0  0  0
   10.0128   14.6550   55.8035 C   0  0  0  0  0  0  0  0  0  0  0  0
    9.3812   15.4673   56.9432 C   0  0  0  0  0  0  0  0  0  0  0  0
   10.2588   15.5418   58.0491 O   0  0  0  0  0  0  0  0  0  0  0  0
   11.4455   16.2097   57.6691 C   0  0  0  0  0  0  0  0  0  0  0  0
   12.1759   15.4359   56.5616 C   0  0  0  0  0  0  0  0  0  0  0  0
   14.4298   14.7682   54.0922 C   0  0  0  0  0  0  0  0  0  0  0  0
  1  2  2  0
  2  3  1  0
  3  4  1  0
  4  5  2  0
  5  6  1  0
  6  7  2  0
  7  8  1  0
  8  9  1  0
  9 10  1  0
  9 11  1  0
  9 12  1  0
  7 13  1  0
 13 14  2  0
  2 15  1  0
 15 16  2  0
 16 17  1  0
 17 18  2  0
 18 19  1  0
 19 20  1  0
 20 21  1  0
 21 22  1  0
 22 23  1  0
 23 24  1  0
 24 25  1  0
 25 26  1  0
 19 27  2  0
 14  4  1  0
 27 15  1  0
 26 21  1  0
M  CHG  1  21   1
M  END
$$$$
6HD4_FYW
     RDKit          3D

 32 35  0  0  0  0  0  0  0  0999 V2000
    0.6735   -0.6853    3.0333 O   0  0  0  0  0  0  0  0  0  0  0  0
    0.2992   -0.5621    1.8361 C   0  0  0  0  0  0  0  0  0  0  0  0
    1.0717   -1.1949    0.8019 N   0  0  0  0  0  0  0  0  0  0  0  0
    1.2182   -0.6805   -0.5337 C   0  0  0  0  0  0  0  0  0  0  0  0
    1.4412   -1.5695   -1.5935 C   0  0  0  0  0  0  0  0  0  0  0  0
    1.5544   -1.0950   -2.9032 C   0  0  0  0  0  0  0  0  0  0  0  0
    1.4598    0.2744   -3.1759 C   0  0  0  0  0  0  0  0  0  0  0  0
    1.5647    0.6933   -4.5121 O   0  0  0  0  0  0  0  0  0  0  0  0
    1.4672    2.0429   -4.9619 C   0  0  0  0  0  0  0  0  0  0  0  0
    0.2334    2.5701   -4.6239 F   0  0  0  0  0  0  0  0  0  0  0  0
    1.6007    2.0679   -6.3365 F   0  0  0  0  0  0  0  0  0  0  0  0
    2.4760    2.8061   -4.4020 F   0  0  0  0  0  0  0  0  0  0  0  0
    1.2661    1.1729   -2.1091 C   0  0  0  0  0  0  0  0  0  0  0  0
    1.1561    0.6986   -0.7990 C   0  0  0  0  0  0  0  0  0  0  0  0
   -0.9421    0.1940    1.5389 C   0  0  0  0  0  0  0  0  0  0  0  0
   -1.3681    1.2228    2.3886 C   0  0  0  0  0  0  0  0  0  0  0  0
   -2.4807    1.9412    2.0894 N   0  0  0  0  0  0  0  0  0  0  0  0
   -3.2317    1.6968    0.9813 C   0  0  0  0  0  0  0  0  0  0  0  0
   -4.3487    2.5525    0.6980 N   0  0  0  0  0  0  0  0  0  0  0  0
   -5.3382    2.9011    1.7031 C   0  0  0  0  0  0  0  0  0  0  0  0
   -6.0501    4.1384    1.1695 C   0  0  0  0  0  0  0  0  0  0  0  0
   -5.6958    4.2120   -0.3182 C   0  0  0  0  0  0  0  0  0  0  0  0
   -5.5163    5.5388   -0.7376 O   0  0  0  0  0  0  0  0  0  0  0  0
   -4.4023    3.4205   -0.4668 C   0  0  0  0  0  0  0  0  0  0  0  0
   -2.8731    0.6376    0.1178 C   0  0  0  0  0  0  0  0  0  0  0  0
   -3.6870    0.2672   -1.0633 C   0  0  0  0  0  0  0  0  0  0  0  0
   -5.0702    0.0654   -0.9610 C   0  0  0  0  0  0  0  0  0  0  0  0
   -5.7910   -0.2770   -2.0598 N   0  0  0  0  0  0  0  0  0  0  0  0
   -5.1910   -0.4340   -3.2679 C   0  0  0  0  0  0  0  0  0  0  0  0
   -3.8507   -0.2542   -3.3910 N   0  0  0  0  0  0  0  0  0  0  0  0
   -3.0904    0.0871   -2.3189 C   0  0  0  0  0  0  0  0  0  0  0  0
   -1.7252   -0.1103    0.4165 C   0  0  0  0  0  0  0  0  0  0  0  0
  1  2  2  0
  2  3  1  0
  3  4  1  0
  4  5  2  0
  5  6  1  0
  6  7  2  0
  7  8  1  0
  8  9  1  0
  9 10  1  0
  9 11  1  0
  9 12  1  0
  7 13  1  0
 13 14  2  0
  2 15  1  0
 15 16  2  0
 16 17  1  0
 17 18  2  0
 18 19  1  0
 19 20  1  0
 20 21  1  0
 21 22  1  0
 22 23  1  0
 22 24  1  0
 18 25  1  0
 25 26  1  0
 26 27  2  0
 27 28  1  0
 28 29  2  0
 29 30  1  0
 30 31  2  0
 25 32  2  0
 14  4  1  0
 32 15  1  0
 24 19  1  0
 31 26  1  0
M  END
$$$$
2QOH_P3Y
     RDKit          3D

 28 31  0  0  0  0  0  0  0  0999 V2000
   -0.7104   -0.3664    2.9857 C   0  0  0  0  0  0  0  0  0  0  0  0
   -1.2587    0.5552    2.0501 O   0  0  0  0  0  0  0  0  0  0  0  0
   -0.4513    1.2857    1.1741 C   0  0  0  0  0  0  0  0  0  0  0  0
   -0.3041    2.6615    1.3897 C   0  0  0  0  0  0  0  0  0  0  0  0
    0.5226    3.4226    0.5609 C   0  0  0  0  0  0  0  0  0  0  0  0
    1.1989    2.8157   -0.4982 C   0  0  0  0  0  0  0  0  0  0  0  0
    1.0422    1.4483   -0.7378 C   0  0  0  0  0  0  0  0  0  0  0  0
    0.2144    0.6694    0.0897 C   0  0  0  0  0  0  0  0  0  0  0  0
    0.0028   -0.7583   -0.2301 C   0  0  0  0  0  0  0  0  0  0  0  0
   -1.2201   -1.4300   -0.2663 C   0  0  0  0  0  0  0  0  0  0  0  0
   -1.0409   -2.7250   -0.6144 N   0  0  0  0  0  0  0  0  0  0  0  0
    0.2809   -2.8707   -0.7944 C   0  0  0  0  0  0  0  0  0  0  0  0
    0.9163   -4.0179   -1.1341 N   0  0  0  0  0  0  0  0  0  0  0  0
    2.2768   -4.0155   -1.2592 C   0  0  0  0  0  0  0  0  0  0  0  0
    3.0280   -2.8315   -1.0237 C   0  0  0  0  0  0  0  0  0  0  0  0
    4.5077   -2.8367   -1.1464 C   0  0  0  0  0  0  0  0  0  0  0  0
    5.1422   -3.5542   -2.1738 C   0  0  0  0  0  0  0  0  0  0  0  0
    6.4971   -3.5556   -2.2745 N   0  0  0  0  0  0  0  0  0  0  0  0
    7.2826   -2.8667   -1.4067 C   0  0  0  0  0  0  0  0  0  0  0  0
    6.7040   -2.1179   -0.3734 C   0  0  0  0  0  0  0  0  0  0  0  0
    7.5444   -1.3825    0.5953 C   0  0  0  0  0  0  0  0  0  0  0  0
    7.2418   -1.4296    1.8191 O   0  0  0  0  0  0  0  0  0  0  0  0
    8.6870   -0.6097    0.1754 N   0  0  0  0  0  0  0  0  0  0  0  0
    8.6939    0.0561   -1.1319 C   0  0  0  0  0  0  0  0  0  0  0  0
    9.7693   -0.3632    1.1316 C   0  0  0  0  0  0  0  0  0  0  0  0
    5.3085   -2.1227   -0.2392 C   0  0  0  0  0  0  0  0  0  0  0  0
    2.3414   -1.6486   -0.6649 C   0  0  0  0  0  0  0  0  0  0  0  0
    0.9534   -1.7039   -0.5715 C   0  0  0  0  0  0  0  0  0  0  0  0
  1  2  1  0
  2  3  1  0
  3  4  2  0
  4  5  1  0
  5  6  2  0
  6  7  1  0
  7  8  2  0
  8  9  1  0
  9 10  2  0
 10 11  1  0
 11 12  1  0
 12 13  2  0
 13 14  1  0
 14 15  2  0
 15 16  1  0
 16 17  2  0
 17 18  1  0
 18 19  2  0
 19 20  1  0
 20 21  1  0
 21 22  2  0
 21 23  1  0
 23 24  1  0
 23 25  1  0
 20 26  2  0
 15 27  1  0
 27 28  2  0
  8  3  1  0
 28  9  1  0
 28 12  1  0
 26 16  1  0
M  END
$$$$
3KF4_B90
     RDKit          3D

 32 36  0  0  0  0  0  0  0  0999 V2000
    8.3827   -2.6220   -2.3694 C   0  0  0  0  0  0  0  0  0  0  0  0
    9.4364   -1.8615   -1.6085 C   0  0  0  0  0  0  0  0  0  0  0  0
   10.8064   -2.1071   -1.8927 C   0  0  0  0  0  0  0  0  0  0  0  0
   11.8214   -1.4257   -1.2016 C   0  0  0  0  0  0  0  0  0  0  0  0
   11.4388   -0.5134   -0.2270 C   0  0  0  0  0  0  0  0  0  0  0  0
   12.2279    0.2039    0.5867 N   0  0  0  0  0  0  0  0  0  0  0  0
   11.4565    0.9031    1.4100 N   0  0  0  0  0  0  0  0  0  0  0  0
   10.1623    0.6327    1.1161 C   0  0  0  0  0  0  0  0  0  0  0  0
   10.1275   -0.2658    0.0641 C   0  0  0  0  0  0  0  0  0  0  0  0
    9.0772   -0.9112   -0.6093 C   0  0  0  0  0  0  0  0  0  0  0  0
    7.6578   -0.6534   -0.2746 C   0  0  0  0  0  0  0  0  0  0  0  0
    7.1717    0.5865   -0.1401 C   0  0  0  0  0  0  0  0  0  0  0  0
    5.7924    0.8524    0.1647 N   0  0  0  0  0  0  0  0  0  0  0  0
    5.3079    2.0130    0.6764 C   0  0  0  0  0  0  0  0  0  0  0  0
    3.9551    2.0194    0.8249 N   0  0  0  0  0  0  0  0  0  0  0  0
    3.6001    0.8026    0.3734 C   0  0  0  0  0  0  0  0  0  0  0  0
    2.3294    0.2533    0.2343 C   0  0  0  0  0  0  0  0  0  0  0  0
    1.1596    0.9597    0.6777 N   0  0  0  0  0  0  0  0  0  0  0  0
   -0.1843    0.5771    0.3404 C   0  0  0  0  0  0  0  0  0  0  0  0
   -0.5019    0.0573   -0.9270 C   0  0  0  0  0  0  0  0  0  0  0  0
   -1.8206   -0.2850   -1.2394 C   0  0  0  0  0  0  0  0  0  0  0  0
   -2.8401   -0.1019   -0.2967 C   0  0  0  0  0  0  0  0  0  0  0  0
   -4.5318   -0.5395   -0.7138 P   0  0  0  0  0  5  0  0  0  0  0  0
   -5.0912    0.4798   -2.1066 C   0  0  0  0  0  0  0  0  0  0  0  0
   -4.6078   -2.2911   -1.1817 C   0  0  0  0  0  0  0  0  0  0  0  0
   -5.4438   -0.3047    0.4694 O   0  0  0  0  0  0  0  0  0  0  0  0
   -2.5321    0.4410    0.9579 C   0  0  0  0  0  0  0  0  0  0  0  0
   -1.2135    0.7844    1.2706 C   0  0  0  0  0  0  0  0  0  0  0  0
    2.2437   -1.0021   -0.3030 N   0  0  0  0  0  0  0  0  0  0  0  0
    3.3597   -1.6838   -0.7147 C   0  0  0  0  0  0  0  0  0  0  0  0
    4.5998   -1.1248   -0.5850 N   0  0  0  0  0  0  0  0  0  0  0  0
    4.6911    0.1060   -0.0246 C   0  0  0  0  0  0  0  0  0  0  0  0
  1  2  1  0
  2  3  2  0
  3  4  1  0
  4  5  2  0
  5  6  1  0
  6  7  1  0
  7  8  2  0
  8  9  1  0
  9 10  2  0
 10 11  1  0
 11 12  2  0
 12 13  1  0
 13 14  1  0
 14 15  2  0
 15 16  1  0
 16 17  2  0
 17 18  1  0
 18 19  1  0
 19 20  2  0
 20 21  1  0
 21 22  2  0
 22 23  1  0
 23 24  1  0
 23 25  1  0
 23 26  2  0
 22 27  1  0
 27 28  2  0
 17 29  1  0
 29 30  2  0
 30 31  1  0
 31 32  2  0
 10  2  1  0
 32 13  1  0
  9  5  1  0
 32 16  1  0
 28 19  1  0
M  END
$$$$
3MS9_MS9
     RDKit          3D

 12 12  0  0  0  0  0  0  0  0999 V2000
   19.3388   15.9919   54.0015 C   0  0  0  0  0  0  0  0  0  0  0  0
   18.0352   15.8815   53.4430 O   0  0  0  0  0  0  0  0  0  0  0  0
   16.8846   15.7606   54.2296 C   0  0  0  0  0  0  0  0  0  0  0  0
   16.9751   15.7762   55.4878 O   0  0  0  0  0  0  0  0  0  0  0  0
   15.5600   15.6770   53.5741 C   0  0  0  0  0  0  0  0  0  0  0  0
   15.3770   16.3582   52.3572 C   0  0  0  0  0  0  0  0  0  0  0  0
   14.1298   16.3778   51.7305 C   0  0  0  0  0  0  0  0  0  0  0  0
   13.0459   15.7166   52.3077 C   0  0  0  0  0  0  0  0  0  0  0  0
   11.4781   15.7496   51.5214 Cl  0  0  0  0  0  0  0  0  0  0  0  0
   13.2131   15.0174   53.5051 C   0  0  0  0  0  0  0  0  0  0  0  0
   14.4647   14.9731   54.1408 C   0  0  0  0  0  0  0  0  0  0  0  0
   14.6077   14.1646   55.3169 N   0  0  0  0  0  0  0  0  0  0  0  0
  1  2  1  0
  2  3  1  0
  3  4  2  0
  3  5  1  0
  5  6  2  0
  6  7  1  0
  7  8  2  0
  8  9  1  0
  8 10  1  0
 10 11  2  0
 11 12  1  0
 11  5  1  0
M  END
$$$$
3K5V_STJ
     RDKit          3D

 27 29  0  0  0  0  0  0  0  0999 V2000
   17.8451   16.0785   54.3233 N   0  0  0  0  0  0  0  0  0  0  0  0
   16.6689   15.2956   54.5455 C   0  0  0  0  0  0  0  0  0  0  0  0
   16.6803   14.4275   55.4595 O   0  0  0  0  0  0  0  0  0  0  0  0
   15.4401   15.4957   53.7379 C   0  0  0  0  0  0  0  0  0  0  0  0
   15.5012   16.0602   52.4519 C   0  0  0  0  0  0  0  0  0  0  0  0
   14.3391   16.2257   51.6972 C   0  0  0  0  0  0  0  0  0  0  0  0
   13.1031   15.8322   52.2117 C   0  0  0  0  0  0  0  0  0  0  0  0
   13.0118   15.2677   53.4951 C   0  0  0  0  0  0  0  0  0  0  0  0
   11.6885   14.8458   54.0220 C   0  0  0  0  0  0  0  0  0  0  0  0
   11.4006   14.8622   55.3967 C   0  0  0  0  0  0  0  0  0  0  0  0
   10.1302   14.4646   55.8283 C   0  0  0  0  0  0  0  0  0  0  0  0
    9.8232   14.4453   57.2322 N   0  0  0  0  0  0  0  0  0  0  0  0
    8.4935   14.3151   57.7633 C   0  0  0  0  0  0  0  0  0  0  0  0
    8.2970   13.6202   58.9649 C   0  0  0  0  0  0  0  0  0  0  0  0
    7.0173   13.4991   59.5149 C   0  0  0  0  0  0  0  0  0  0  0  0
    5.9107   14.0898   58.8750 C   0  0  0  0  0  0  0  0  0  0  0  0
    4.6036   13.9997   59.3802 O   0  0  0  0  0  0  0  0  0  0  0  0
    4.2265   13.3149   60.5728 C   0  0  0  0  0  0  0  0  0  0  0  0
    4.8684   13.8707   61.6649 F   0  0  0  0  0  0  0  0  0  0  0  0
    4.5434   11.9720   60.4721 F   0  0  0  0  0  0  0  0  0  0  0  0
    2.8618   13.4384   60.7480 F   0  0  0  0  0  0  0  0  0  0  0  0
    6.1127   14.8032   57.6880 C   0  0  0  0  0  0  0  0  0  0  0  0
    7.3920   14.9236   57.1378 C   0  0  0  0  0  0  0  0  0  0  0  0
    9.2105   14.0586   54.9119 N   0  0  0  0  0  0  0  0  0  0  0  0
    9.4952   14.0555   53.5853 C   0  0  0  0  0  0  0  0  0  0  0  0
   10.7198   14.4487   53.1516 N   0  0  0  0  0  0  0  0  0  0  0  0
   14.1911   15.0908   54.2458 C   0  0  0  0  0  0  0  0  0  0  0  0
  1  2  1  0
  2  3  2  0
  2  4  1  0
  4  5  2  0
  5  6  1  0
  6  7  2  0
  7  8  1  0
  8  9  1  0
  9 10  2  0
 10 11  1  0
 11 12  1  0
 12 13  1  0
 13 14  2  0
 14 15  1  0
 15 16  2  0
 16 17  1  0
 17 18  1  0
 18 19  1  0
 18 20  1  0
 18 21  1  0
 16 22  1  0
 22 23  2  0
 11 24  2  0
 24 25  1  0
 25 26  2  0
  8 27  2  0
 27  4  1  0
 26  9  1  0
 23 13  1  0
M  END
$$$$
3K5V_STI
     RDKit          3D

 37 41  0  0  0  0  0  0  0  0999 V2000
   21.7353   11.7535   57.2435 C   0  0  0  0  0  0  0  0  0  0  0  0
   20.6546   12.5805   56.6016 C   0  0  0  0  0  0  0  0  0  0  0  0
   19.4389   11.9745   56.2472 C   0  0  0  0  0  0  0  0  0  0  0  0
   18.4213   12.7191   55.6485 C   0  0  0  0  0  0  0  0  0  0  0  0
   18.6095   14.0814   55.3682 C   0  0  0  0  0  0  0  0  0  0  0  0
   17.5719   14.8720   54.7617 N   0  0  0  0  0  0  0  0  0  0  0  0
   16.6128   14.3497   53.8267 C   0  0  0  0  0  0  0  0  0  0  0  0
   16.8783   13.2985   53.1814 O   0  0  0  0  0  0  0  0  0  0  0  0
   15.3353   15.0589   53.5722 C   0  0  0  0  0  0  0  0  0  0  0  0
   14.8255   15.9857   54.4997 C   0  0  0  0  0  0  0  0  0  0  0  0
   13.6165   16.6430   54.2546 C   0  0  0  0  0  0  0  0  0  0  0  0
   12.8926   16.3849   53.0816 C   0  0  0  0  0  0  0  0  0  0  0  0
   11.5770   17.0855   52.8301 C   0  0  0  0  0  0  0  0  0  0  0  0
   10.4814   16.5401   53.6738 N   0  0  0  0  0  4  0  0  0  0  0  0
   10.1201   15.1428   53.3398 C   0  0  0  0  0  0  0  0  0  0  0  0
    9.3507   15.0273   52.0091 C   0  0  0  0  0  0  0  0  0  0  0  0
    8.1702   15.9162   51.9537 N   0  0  0  0  0  4  0  0  0  0  0  0
    7.0469   15.3992   52.7596 C   0  0  0  0  0  0  0  0  0  0  0  0
    8.5164   17.3092   52.3097 C   0  0  0  0  0  0  0  0  0  0  0  0
    9.2836   17.4079   53.6429 C   0  0  0  0  0  0  0  0  0  0  0  0
   13.3918   15.4535   52.1588 C   0  0  0  0  0  0  0  0  0  0  0  0
   14.5997   14.7944   52.4028 C   0  0  0  0  0  0  0  0  0  0  0  0
   19.8175   14.6927   55.7299 C   0  0  0  0  0  0  0  0  0  0  0  0
   20.8444   13.9575   56.3485 C   0  0  0  0  0  0  0  0  0  0  0  0
   22.0945   14.5939   56.6697 N   0  0  0  0  0  0  0  0  0  0  0  0
   22.1926   15.8944   57.2665 C   0  0  0  0  0  0  0  0  0  0  0  0
   21.0913   16.5159   57.7678 N   0  0  0  0  0  0  0  0  0  0  0  0
   21.1824   17.7379   58.3500 C   0  0  0  0  0  0  0  0  0  0  0  0
   22.4195   18.3721   58.4516 C   0  0  0  0  0  0  0  0  0  0  0  0
   23.5568   17.7177   57.9511 C   0  0  0  0  0  0  0  0  0  0  0  0
   24.9092   18.3286   58.0242 C   0  0  0  0  0  0  0  0  0  0  0  0
   25.2555   19.2446   59.0351 C   0  0  0  0  0  0  0  0  0  0  0  0
   26.5387   19.7924   59.0776 C   0  0  0  0  0  0  0  0  0  0  0  0
   27.4747   19.4194   58.1137 C   0  0  0  0  0  0  0  0  0  0  0  0
   27.1363   18.5268   57.1475 N   0  0  0  0  0  0  0  0  0  0  0  0
   25.8941   17.9771   57.0833 C   0  0  0  0  0  0  0  0  0  0  0  0
   23.4078   16.4955   57.3688 N   0  0  0  0  0  0  0  0  0  0  0  0
  1  2  1  0
  2  3  2  0
  3  4  1  0
  4  5  2  0
  5  6  1  0
  6  7  1  0
  7  8  2  0
  7  9  1  0
  9 10  2  0
 10 11  1  0
 11 12  2  0
 12 13  1  0
 13 14  1  0
 14 15  1  0
 15 16  1  0
 16 17  1  0
 17 18  1  0
 17 19  1  0
 19 20  1  0
 12 21  1  0
 21 22  2  0
  5 23  1  0
 23 24  2  0
 24 25  1  0
 25 26  1  0
 26 27  2  0
 27 28  1  0
 28 29  2  0
 29 30  1  0
 30 31  1  0
 31 32  2  0
 32 33  1  0
 33 34  2  0
 34 35  1  0
 35 36  2  0
 30 37  2  0
 24  2  1  0
 37 26  1  0
 22  9  1  0
 36 31  1  0
 20 14  1  0
M  CHG  2  14   1  17   1
M  END
$$$$
3KFA_B91
     RDKit          3D

 41 46  0  0  0  0  0  0  0  0999 V2000
   20.2527    7.5223   57.8946 C   0  0  0  0  0  0  0  0  0  0  0  0
   19.6129    8.8136   57.5080 C   0  0  0  0  0  0  0  0  0  0  0  0
   20.2611    9.9079   56.9820 C   0  0  0  0  0  0  0  0  0  0  0  0
   19.3520   10.8887   56.8267 N   0  0  0  0  0  0  0  0  0  0  0  0
   19.5764   12.2153   56.3068 C   0  0  0  0  0  0  0  0  0  0  0  0
   18.5309   12.9252   55.6918 C   0  0  0  0  0  0  0  0  0  0  0  0
   18.7429   14.2142   55.1752 C   0  0  0  0  0  0  0  0  0  0  0  0
   17.6907   14.9335   54.5085 N   0  0  0  0  0  0  0  0  0  0  0  0
   16.3009   14.8188   54.8589 C   0  0  0  0  0  0  0  0  0  0  0  0
   15.9786   14.4087   56.0079 O   0  0  0  0  0  0  0  0  0  0  0  0
   15.2401   15.2232   53.9037 C   0  0  0  0  0  0  0  0  0  0  0  0
   15.5043   15.3066   52.5281 C   0  0  0  0  0  0  0  0  0  0  0  0
   14.5037   15.6944   51.6362 C   0  0  0  0  0  0  0  0  0  0  0  0
   13.2137   16.0039   52.0937 C   0  0  0  0  0  0  0  0  0  0  0  0
   12.1891   16.4720   51.0927 C   0  0  0  0  0  0  0  0  0  0  0  0
   12.9182   15.8630   53.4738 C   0  0  0  0  0  0  0  0  0  0  0  0
   11.5755   16.1193   54.0397 C   0  0  0  0  0  0  0  0  0  0  0  0
   10.4778   15.5202   53.5627 C   0  0  0  0  0  0  0  0  0  0  0  0
    9.1741   15.7311   54.1308 N   0  0  0  0  0  0  0  0  0  0  0  0
    8.7813   16.5829   55.1177 C   0  0  0  0  0  0  0  0  0  0  0  0
    7.4479   16.5204   55.3852 N   0  0  0  0  0  0  0  0  0  0  0  0
    7.0110   15.5873   54.5190 C   0  0  0  0  0  0  0  0  0  0  0  0
    5.7202   15.1010   54.3215 C   0  0  0  0  0  0  0  0  0  0  0  0
    4.6216   15.5756   55.1305 N   0  0  0  0  0  0  0  0  0  0  0  0
    3.1702   15.4093   54.9320 C   0  0  0  0  0  0  0  0  0  0  0  0
    2.6772   15.1773   53.5132 C   0  0  0  0  0  0  0  0  0  0  0  0
    2.7074   14.0234   54.5161 C   0  0  0  0  0  0  0  0  0  0  0  0
    5.5628   14.1385   53.3622 N   0  0  0  0  0  0  0  0  0  0  0  0
    6.6176   13.6799   52.6153 C   0  0  0  0  0  0  0  0  0  0  0  0
    7.8754   14.1734   52.8170 N   0  0  0  0  0  0  0  0  0  0  0  0
    8.0381   15.1206   53.7717 C   0  0  0  0  0  0  0  0  0  0  0  0
   13.9418   15.5007   54.3640 C   0  0  0  0  0  0  0  0  0  0  0  0
   20.0210   14.7831   55.2543 C   0  0  0  0  0  0  0  0  0  0  0  0
   21.0723   14.1034   55.8902 C   0  0  0  0  0  0  0  0  0  0  0  0
   22.4525   14.7108   55.9431 C   0  0  0  0  0  0  0  0  0  0  0  0
   23.1297   14.2872   57.0736 F   0  0  0  0  0  0  0  0  0  0  0  0
   23.1623   14.3246   54.8217 F   0  0  0  0  0  0  0  0  0  0  0  0
   22.3798   16.0928   55.9767 F   0  0  0  0  0  0  0  0  0  0  0  0
   20.8460   12.8126   56.3958 C   0  0  0  0  0  0  0  0  0  0  0  0
   18.1855   10.3707   57.2725 C   0  0  0  0  0  0  0  0  0  0  0  0
   18.3113    9.0994   57.7085 N   0  0  0  0  0  0  0  0  0  0  0  0
  1  2  1  0
  2  3  2  0
  3  4  1  0
  4  5  1  0
  5  6  2  0
  6  7  1  0
  7  8  1  0
  8  9  1  0
  9 10  2  0
  9 11  1  0
 11 12  2  0
 12 13  1  0
 13 14  2  0
 14 15  1  0
 14 16  1  0
 16 17  1  0
 17 18  2  0
 18 19  1  0
 19 20  1  0
 20 21  2  0
 21 22  1  0
 22 23  2  0
 23 24  1  0
 24 25  1  0
 25 26  1  0
 26 27  1  0
 23 28  1  0
 28 29  2  0
 29 30  1  0
 30 31  2  0
 16 32  2  0
  7 33  2  0
 33 34  1  0
 34 35  1  0
 35 36  1  0
 35 37  1  0
 35 38  1  0
 34 39  2  0
  4 40  1  0
 40 41  2  0
 41  2  1  0
 39  5  1  0
 32 11  1  0
 31 19  1  0
 31 22  1  0
 27 25  1  0
M  END
$$$$
