1FPU_PRC
     RDKit          3D

 29 32  0  0  0  0  0  0  0  0999 V2000
    1.6243   -3.2724   -5.2793 C   0  0  0  0  0  0  0  0  0  0  0  0
    2.5519   -2.7915   -4.1964 C   0  0  0  0  0  0  0  0  0  0  0  0
    3.8753   -2.4539   -4.5215 C   0  0  0  0  0  0  0  0  0  0  0  0
    4.7521   -1.9907   -3.5398 C   0  0  0  0  0  0  0  0  0  0  0  0
    4.3374   -1.8858   -2.2069 C   0  0  0  0  0  0  0  0  0  0  0  0
    5.2470   -1.3570   -1.2244 N   0  0  0  0  0  0  0  0  0  0  0  0
    5.0970   -1.5464    0.1914 C   0  0  0  0  0  0  0  0  0  0  0  0
    4.6556   -2.6449    0.6274 O   0  0  0  0  0  0  0  0  0  0  0  0
    5.4864   -0.4806    1.1466 C   0  0  0  0  0  0  0  0  0  0  0  0
    5.5808   -0.7536    2.5222 C   0  0  0  0  0  0  0  0  0  0  0  0
    5.9299    0.2586    3.4176 C   0  0  0  0  0  0  0  0  0  0  0  0
    6.1788    1.5429    2.9347 C   0  0  0  0  0  0  0  0  0  0  0  0
    6.0765    1.8005    1.6049 N   0  0  0  0  0  0  0  0  0  0  0  0
    5.7393    0.8329    0.7107 C   0  0  0  0  0  0  0  0  0  0  0  0
    3.0180   -2.2369   -1.8734 C   0  0  0  0  0  0  0  0  0  0  0  0
    2.1119   -2.6706   -2.8586 C   0  0  0  0  0  0  0  0  0  0  0  0
    0.7600   -3.0172   -2.4989 N   0  0  0  0  0  0  0  0  0  0  0  0
   -0.0311   -2.2764   -1.5573 C   0  0  0  0  0  0  0  0  0  0  0  0
   -1.2472   -2.7511   -1.1801 N   0  0  0  0  0  0  0  0  0  0  0  0
   -2.0189   -2.0707   -0.2945 C   0  0  0  0  0  0  0  0  0  0  0  0
   -1.5691   -0.8649    0.2430 C   0  0  0  0  0  0  0  0  0  0  0  0
   -0.3186   -0.3714   -0.1613 C   0  0  0  0  0  0  0  0  0  0  0  0
    0.2436    0.8914    0.3827 C   0  0  0  0  0  0  0  0  0  0  0  0
    1.6368    1.0757    0.4408 C   0  0  0  0  0  0  0  0  0  0  0  0
    2.1693    2.2602    0.9515 C   0  0  0  0  0  0  0  0  0  0  0  0
    1.3073    3.2620    1.3956 C   0  0  0  0  0  0  0  0  0  0  0  0
   -0.0373    3.0827    1.3240 N   0  0  0  0  0  0  0  0  0  0  0  0
   -0.5835    1.9375    0.8342 C   0  0  0  0  0  0  0  0  0  0  0  0
    0.4117   -1.0923   -1.0545 N   0  0  0  0  0  0  0  0  0  0  0  0
  1  2  1  0
  2  3  2  0
  3  4  1  0
  4  5  2  0
  5  6  1  0
  6  7  1  0
  7  8  2  0
  7  9  1  0
  9 10  2  0
 10 11  1  0
 11 12  2  0
 12 13  1  0
 13 14  2  0
  5 15  1  0
 15 16  2  0
 16 17  1  0
 17 18  1  0
 18 19  2  0
 19 20  1  0
 20 21  2  0
 21 22  1  0
 22 23  1  0
 23 24  2  0
 24 25  1  0
 25 26  2  0
 26 27  1  0
 27 28  2  0
 22 29  2  0
 16  2  1  0
 29 18  1  0
 14  9  1  0
 28 23  1  0
M  END
$$$$
6HD6_FYH
     RDKit          3D

 27 29  0  0  0  0  0  0  0  0999 V2000
   21.6444   42.5466   54.0889 O   0  0  0  0  0  0  0  0  0  0  0  0
   21.2453   43.7150   53.8296 C   0  0  0  0  0  0  0  0  0  0  0  0
   19.9231   43.9146   53.3011 N   0  0  0  0  0  0  0  0  0  0  0  0
   19.1720   42.8934   52.6217 C   0  0  0  0  0  0  0  0  0  0  0  0
   19.8083   41.9076   51.8471 C   0  0  0  0  0  0  0  0  0  0  0  0
   19.0558   40.9383   51.1767 C   0  0  0  0  0  0  0  0  0  0  0  0
   17.6501   40.9465   51.2597 C   0  0  0  0  0  0  0  0  0  0  0  0
   16.8450   39.9971   50.6099 O   0  0  0  0  0  0  0  0  0  0  0  0
   17.3248   38.9237   49.8031 C   0  0  0  0  0  0  0  0  0  0  0  0
   16.2466   38.1974   49.3360 F   0  0  0  0  0  0  0  0  0  0  0  0
   18.0311   39.4188   48.7215 F   0  0  0  0  0  0  0  0  0  0  0  0
   18.1338   38.0884   50.5526 F   0  0  0  0  0  0  0  0  0  0  0  0
   17.0196   41.9411   52.0155 C   0  0  0  0  0  0  0  0  0  0  0  0
   17.7714   42.9107   52.6848 C   0  0  0  0  0  0  0  0  0  0  0  0
   22.1290   44.8697   54.1230 C   0  0  0  0  0  0  0  0  0  0  0  0
   21.9075   46.1205   53.5186 C   0  0  0  0  0  0  0  0  0  0  0  0
   22.7465   47.2012   53.8003 C   0  0  0  0  0  0  0  0  0  0  0  0
   23.8188   47.0483   54.6804 C   0  0  0  0  0  0  0  0  0  0  0  0
   24.0671   45.8053   55.2814 C   0  0  0  0  0  0  0  0  0  0  0  0
   25.2119   45.6406   56.2544 C   0  0  0  0  0  0  0  0  0  0  0  0
   24.7440   45.6386   57.6603 N   0  0  0  0  0  4  0  0  0  0  0  0
   25.8570   45.2806   58.5630 C   0  0  0  0  0  0  0  0  0  0  0  0
   25.3891   45.2680   60.0372 C   0  0  0  0  0  0  0  0  0  0  0  0
   24.1008   45.8324   60.2046 O   0  0  0  0  0  0  0  0  0  0  0  0
   24.0492   47.0958   59.5763 C   0  0  0  0  0  0  0  0  0  0  0  0
   24.1747   46.9532   58.0454 C   0  0  0  0  0  0  0  0  0  0  0  0
   23.2192   44.7216   55.0008 C   0  0  0  0  0  0  0  0  0  0  0  0
  1  2  2  0
  2  3  1  0
  3  4  1  0
  4  5  2  0
  5  6  1  0
  6  7  2  0
  7  8  1  0
  8  9  1  0
  9 10  1  0
  9 11  1  0
  9 12  1  0
  7 13  1  0
 13 14  2  0
  2 15  1  0
 15 16  2  0
 16 17  1  0
 17 18  2  0
 18 19  1  0
 19 20  1  0
 20 21  1  0
 21 22  1  0
 22 23  1  0
 23 24  1  0
 24 25  1  0
 25 26  1  0
 19 27  2  0
 14  4  1  0
 27 15  1  0
 26 21  1  0
M  CHG  1  21   1
M  END
$$$$
6HD4_FYW
     RDKit          3D

 32 35  0  0  0  0  0  0  0  0999 V2000
   17.2270   45.4218   52.7339 O   0  0  0  0  0  0  0  0  0  0  0  0
   18.1604   45.2666   53.5685 C   0  0  0  0  0  0  0  0  0  0  0  0
   19.1310   44.2254   53.3660 N   0  0  0  0  0  0  0  0  0  0  0  0
   18.8958   43.0601   52.5563 C   0  0  0  0  0  0  0  0  0  0  0  0
   19.9751   42.4396   51.9114 C   0  0  0  0  0  0  0  0  0  0  0  0
   19.7744   41.2939   51.1366 C   0  0  0  0  0  0  0  0  0  0  0  0
   18.4970   40.7383   51.0033 C   0  0  0  0  0  0  0  0  0  0  0  0
   18.3538   39.5876   50.2111 O   0  0  0  0  0  0  0  0  0  0  0  0
   17.1283   38.8986   49.9731 C   0  0  0  0  0  0  0  0  0  0  0  0
   16.2213   39.7390   49.3526 F   0  0  0  0  0  0  0  0  0  0  0  0
   16.6025   38.4349   51.1658 F   0  0  0  0  0  0  0  0  0  0  0  0
   17.3741   37.8200   49.1458 F   0  0  0  0  0  0  0  0  0  0  0  0
   17.4139   41.3466   51.6665 C   0  0  0  0  0  0  0  0  0  0  0  0
   17.6143   42.4935   52.4410 C   0  0  0  0  0  0  0  0  0  0  0  0
   18.2723   46.1956   54.7190 C   0  0  0  0  0  0  0  0  0  0  0  0
   17.5915   47.4212   54.7129 C   0  0  0  0  0  0  0  0  0  0  0  0
   17.7013   48.2723   55.7646 N   0  0  0  0  0  0  0  0  0  0  0  0
   18.4469   47.9828   56.8650 C   0  0  0  0  0  0  0  0  0  0  0  0
   18.5659   48.9704   57.9023 N   0  0  0  0  0  0  0  0  0  0  0  0
   17.4409   49.7810   58.3327 C   0  0  0  0  0  0  0  0  0  0  0  0
   18.0225   50.7972   59.3041 C   0  0  0  0  0  0  0  0  0  0  0  0
   19.5191   50.8593   58.9867 C   0  0  0  0  0  0  0  0  0  0  0  0
   19.7792   51.9017   58.0823 O   0  0  0  0  0  0  0  0  0  0  0  0
   19.8443   49.5192   58.3306 C   0  0  0  0  0  0  0  0  0  0  0  0
   19.1141   46.7401   56.9433 C   0  0  0  0  0  0  0  0  0  0  0  0
   19.8310   46.3065   58.1636 C   0  0  0  0  0  0  0  0  0  0  0  0
   19.2058   46.3307   59.4179 C   0  0  0  0  0  0  0  0  0  0  0  0
   19.8793   45.9158   60.5218 N   0  0  0  0  0  0  0  0  0  0  0  0
   21.1578   45.4669   60.4321 C   0  0  0  0  0  0  0  0  0  0  0  0
   21.7808   45.4223   59.2262 N   0  0  0  0  0  0  0  0  0  0  0  0
   21.1450   45.8263   58.0960 C   0  0  0  0  0  0  0  0  0  0  0  0
   19.0275   45.8603   55.8532 C   0  0  0  0  0  0  0  0  0  0  0  0
  1  2  2  0
  2  3  1  0
  3  4  1  0
  4  5  2  0
  5  6  1  0
  6  7  2  0
  7  8  1  0
  8  9  1  0
  9 10  1  0
  9 11  1  0
  9 12  1  0
  7 13  1  0
 13 14  2  0
  2 15  1  0
 15 16  2  0
 16 17  1  0
 17 18  2  0
 18 19  1  0
 19 20  1  0
 20 21  1  0
 21 22  1  0
 22 23  1  0
 22 24  1  0
 18 25  1  0
 25 26  1  0
 26 27  2  0
 27 28  1  0
 28 29  2  0
 29 30  1  0
 30 31  2  0
 25 32  2  0
 14  4  1  0
 32 15  1  0
 24 19  1  0
 31 26  1  0
M  END
$$$$
2QOH_P3Y
     RDKit          3D

 28 31  0  0  0  0  0  0  0  0999 V2000
    1.0568   -2.7713   -2.4945 C   0  0  0  0  0  0  0  0  0  0  0  0
    0.4534   -1.8059   -1.6396 O   0  0  0  0  0  0  0  0  0  0  0  0
    1.1616   -0.8810   -0.8541 C   0  0  0  0  0  0  0  0  0  0  0  0
    2.5703   -0.8250   -0.8675 C   0  0  0  0  0  0  0  0  0  0  0  0
    3.2487    0.1188   -0.0937 C   0  0  0  0  0  0  0  0  0  0  0  0
    2.5357    1.0128    0.7039 C   0  0  0  0  0  0  0  0  0  0  0  0
    1.1411    0.9668    0.7313 C   0  0  0  0  0  0  0  0  0  0  0  0
    0.4427    0.0264   -0.0453 C   0  0  0  0  0  0  0  0  0  0  0  0
   -1.0354   -0.0156    0.0132 C   0  0  0  0  0  0  0  0  0  0  0  0
   -1.8315   -1.1550    0.1426 C   0  0  0  0  0  0  0  0  0  0  0  0
   -3.1407   -0.8176    0.1930 N   0  0  0  0  0  0  0  0  0  0  0  0
   -3.1729    0.5201    0.0943 C   0  0  0  0  0  0  0  0  0  0  0  0
   -4.2871    1.2905    0.0845 N   0  0  0  0  0  0  0  0  0  0  0  0
   -4.1611    2.6449   -0.0427 C   0  0  0  0  0  0  0  0  0  0  0  0
   -2.8806    3.2479   -0.1776 C   0  0  0  0  0  0  0  0  0  0  0  0
   -2.7496    4.7190   -0.3294 C   0  0  0  0  0  0  0  0  0  0  0  0
   -1.8076    5.2708   -1.2133 C   0  0  0  0  0  0  0  0  0  0  0  0
   -1.6902    6.6186   -1.3379 N   0  0  0  0  0  0  0  0  0  0  0  0
   -2.4725    7.4759   -0.6324 C   0  0  0  0  0  0  0  0  0  0  0  0
   -3.4423    6.9823    0.2502 C   0  0  0  0  0  0  0  0  0  0  0  0
   -4.2842    7.9009    1.0457 C   0  0  0  0  0  0  0  0  0  0  0  0
   -4.4928    7.6335    2.2609 O   0  0  0  0  0  0  0  0  0  0  0  0
   -4.8760    9.0813    0.4666 N   0  0  0  0  0  0  0  0  0  0  0  0
   -5.2155   10.2081    1.3393 C   0  0  0  0  0  0  0  0  0  0  0  0
   -5.2823    9.0937   -0.9430 C   0  0  0  0  0  0  0  0  0  0  0  0
   -3.5630    5.5945    0.4093 C   0  0  0  0  0  0  0  0  0  0  0  0
   -1.7336    2.4211   -0.1705 C   0  0  0  0  0  0  0  0  0  0  0  0
   -1.9195    1.0494   -0.0177 C   0  0  0  0  0  0  0  0  0  0  0  0
  1  2  1  0
  2  3  1  0
  3  4  2  0
  4  5  1  0
  5  6  2  0
  6  7  1  0
  7  8  2  0
  8  9  1  0
  9 10  2  0
 10 11  1  0
 11 12  1  0
 12 13  2  0
 13 14  1  0
 14 15  2  0
 15 16  1  0
 16 17  2  0
 17 18  1  0
 18 19  2  0
 19 20  1  0
 20 21  1  0
 21 22  2  0
 21 23  1  0
 23 24  1  0
 23 25  1  0
 20 26  2  0
 15 27  1  0
 27 28  2  0
  8  3  1  0
 28  9  1  0
 28 12  1  0
 26 16  1  0
M  END
$$$$
3KF4_B90
     RDKit          3D

 32 36  0  0  0  0  0  0  0  0999 V2000
   23.8047   48.0858   59.8085 C   0  0  0  0  0  0  0  0  0  0  0  0
   25.1848   47.6217   59.4245 C   0  0  0  0  0  0  0  0  0  0  0  0
   26.2920   48.1047   60.1734 C   0  0  0  0  0  0  0  0  0  0  0  0
   27.5996   47.6707   59.8968 C   0  0  0  0  0  0  0  0  0  0  0  0
   27.7701   46.7564   58.8655 C   0  0  0  0  0  0  0  0  0  0  0  0
   28.9117   46.2067   58.4245 N   0  0  0  0  0  0  0  0  0  0  0  0
   28.6241   45.4004   57.4091 N   0  0  0  0  0  0  0  0  0  0  0  0
   27.2859   45.4359   57.2004 C   0  0  0  0  0  0  0  0  0  0  0  0
   26.7223   46.2955   58.1239 C   0  0  0  0  0  0  0  0  0  0  0  0
   25.4058   46.7162   58.3416 C   0  0  0  0  0  0  0  0  0  0  0  0
   24.3262   46.1840   57.4826 C   0  0  0  0  0  0  0  0  0  0  0  0
   23.4618   46.9864   56.8504 C   0  0  0  0  0  0  0  0  0  0  0  0
   22.4237   46.4887   55.9896 N   0  0  0  0  0  0  0  0  0  0  0  0
   21.3119   47.1743   55.6191 C   0  0  0  0  0  0  0  0  0  0  0  0
   20.5115   46.4888   54.7579 N   0  0  0  0  0  0  0  0  0  0  0  0
   21.1763   45.3309   54.5909 C   0  0  0  0  0  0  0  0  0  0  0  0
   20.8593   44.2439   53.7823 C   0  0  0  0  0  0  0  0  0  0  0  0
   19.6728   44.2385   52.9719 N   0  0  0  0  0  0  0  0  0  0  0  0
   19.1586   43.0702   52.3110 C   0  0  0  0  0  0  0  0  0  0  0  0
   18.5152   43.2071   51.0721 C   0  0  0  0  0  0  0  0  0  0  0  0
   17.9873   42.0890   50.4204 C   0  0  0  0  0  0  0  0  0  0  0  0
   18.0836   40.8204   51.0059 C   0  0  0  0  0  0  0  0  0  0  0  0
   17.3944   39.3920   50.1620 P   0  0  0  0  0  5  0  0  0  0  0  0
   15.6037   39.6121   49.9703 C   0  0  0  0  0  0  0  0  0  0  0  0
   18.1588   39.2276   48.5244 C   0  0  0  0  0  0  0  0  0  0  0  0
   17.6563   38.1330   50.9574 O   0  0  0  0  0  0  0  0  0  0  0  0
   18.7009   40.6812   52.2563 C   0  0  0  0  0  0  0  0  0  0  0  0
   19.2299   41.7991   52.9084 C   0  0  0  0  0  0  0  0  0  0  0  0
   21.7541   43.2096   53.7426 N   0  0  0  0  0  0  0  0  0  0  0  0
   22.9108   43.2327   54.4781 C   0  0  0  0  0  0  0  0  0  0  0  0
   23.2055   44.3054   55.2716 N   0  0  0  0  0  0  0  0  0  0  0  0
   22.3173   45.3281   55.3206 C   0  0  0  0  0  0  0  0  0  0  0  0
  1  2  1  0
  2  3  2  0
  3  4  1  0
  4  5  2  0
  5  6  1  0
  6  7  1  0
  7  8  2  0
  8  9  1  0
  9 10  2  0
 10 11  1  0
 11 12  2  0
 12 13  1  0
 13 14  1  0
 14 15  2  0
 15 16  1  0
 16 17  2  0
 17 18  1  0
 18 19  1  0
 19 20  2  0
 20 21  1  0
 21 22  2  0
 22 23  1  0
 23 24  1  0
 23 25  1  0
 23 26  2  0
 22 27  1  0
 27 28  2  0
 17 29  1  0
 29 30  2  0
 30 31  1  0
 31 32  2  0
 10  2  1  0
 32 13  1  0
  9  5  1  0
 32 16  1  0
 28 19  1  0
M  END
$$$$
3MS9_MS9
     RDKit          3D

 12 12  0  0  0  0  0  0  0  0999 V2000
   27.2211   48.5640   55.3277 C   0  0  0  0  0  0  0  0  0  0  0  0
   25.9161   48.1233   55.6829 O   0  0  0  0  0  0  0  0  0  0  0  0
   25.4943   48.0065   57.0118 C   0  0  0  0  0  0  0  0  0  0  0  0
   26.2923   48.2685   57.9531 O   0  0  0  0  0  0  0  0  0  0  0  0
   24.1283   47.5150   57.3015 C   0  0  0  0  0  0  0  0  0  0  0  0
   23.5540   46.5874   56.4137 C   0  0  0  0  0  0  0  0  0  0  0  0
   22.3001   46.0320   56.6740 C   0  0  0  0  0  0  0  0  0  0  0  0
   21.5989   46.3949   57.8238 C   0  0  0  0  0  0  0  0  0  0  0  0
   20.0265   45.6894   58.1516 Cl  0  0  0  0  0  0  0  0  0  0  0  0
   22.1436   47.3301   58.7065 C   0  0  0  0  0  0  0  0  0  0  0  0
   23.3965   47.9114   58.4519 C   0  0  0  0  0  0  0  0  0  0  0  0
   23.8697   48.9351   59.3380 N   0  0  0  0  0  0  0  0  0  0  0  0
  1  2  1  0
  2  3  1  0
  3  4  2  0
  3  5  1  0
  5  6  2  0
  6  7  1  0
  7  8  2  0
  8  9  1  0
  8 10  1  0
 10 11  2  0
 11 12  1  0
 11  5  1  0
M  END
$$$$
3K5V_STJ
     RDKit          3D

 27 29  0  0  0  0  0  0  0  0999 V2000
   26.6854   47.7970   56.9263 N   0  0  0  0  0  0  0  0  0  0  0  0
   25.5395   48.4635   57.4634 C   0  0  0  0  0  0  0  0  0  0  0  0
   25.6718   49.6342   57.9121 O   0  0  0  0  0  0  0  0  0  0  0  0
   24.2126   47.8023   57.5183 C   0  0  0  0  0  0  0  0  0  0  0  0
   23.2518   48.2381   58.4462 C   0  0  0  0  0  0  0  0  0  0  0  0
   22.0003   47.6243   58.5103 C   0  0  0  0  0  0  0  0  0  0  0  0
   21.6845   46.5776   57.6431 C   0  0  0  0  0  0  0  0  0  0  0  0
   22.6188   46.1373   56.6877 C   0  0  0  0  0  0  0  0  0  0  0  0
   22.3012   45.0273   55.7524 C   0  0  0  0  0  0  0  0  0  0  0  0
   20.9890   44.7809   55.3154 C   0  0  0  0  0  0  0  0  0  0  0  0
   20.7576   43.7269   54.4245 C   0  0  0  0  0  0  0  0  0  0  0  0
   19.4194   43.4386   53.9868 N   0  0  0  0  0  0  0  0  0  0  0  0
   19.1025   42.5688   52.8867 C   0  0  0  0  0  0  0  0  0  0  0  0
   19.9016   42.5281   51.7313 C   0  0  0  0  0  0  0  0  0  0  0  0
   19.5582   41.6925   50.6648 C   0  0  0  0  0  0  0  0  0  0  0  0
   18.4084   40.8966   50.7236 C   0  0  0  0  0  0  0  0  0  0  0  0
   18.1143   40.0745   49.6236 O   0  0  0  0  0  0  0  0  0  0  0  0
   16.9870   39.2073   49.5214 C   0  0  0  0  0  0  0  0  0  0  0  0
   17.0188   38.2627   50.5317 F   0  0  0  0  0  0  0  0  0  0  0  0
   15.8148   39.9382   49.5956 F   0  0  0  0  0  0  0  0  0  0  0  0
   17.0303   38.5577   48.3032 F   0  0  0  0  0  0  0  0  0  0  0  0
   17.5947   40.9538   51.8713 C   0  0  0  0  0  0  0  0  0  0  0  0
   17.9378   41.7904   52.9377 C   0  0  0  0  0  0  0  0  0  0  0  0
   21.8019   42.9574   54.0149 N   0  0  0  0  0  0  0  0  0  0  0  0
   23.0670   43.2088   54.4360 C   0  0  0  0  0  0  0  0  0  0  0  0
   23.3077   44.2346   55.2916 N   0  0  0  0  0  0  0  0  0  0  0  0
   23.8835   46.7539   56.6382 C   0  0  0  0  0  0  0  0  0  0  0  0
  1  2  1  0
  2  3  2  0
  2  4  1  0
  4  5  2  0
  5  6  1  0
  6  7  2  0
  7  8  1  0
  8  9  1  0
  9 10  2  0
 10 11  1  0
 11 12  1  0
 12 13  1  0
 13 14  2  0
 14 15  1  0
 15 16  2  0
 16 17  1  0
 17 18  1  0
 18 19  1  0
 18 20  1  0
 18 21  1  0
 16 22  1  0
 22 23  2  0
 11 24  2  0
 24 25  1  0
 25 26  2  0
  8 27  2  0
 27  4  1  0
 26  9  1  0
 23 13  1  0
M  END
$$$$
3K5V_STI
     RDKit          3D

 37 41  0  0  0  0  0  0  0  0999 V2000
   32.0889   49.1874   58.5699 C   0  0  0  0  0  0  0  0  0  0  0  0
   30.6757   48.7020   58.3932 C   0  0  0  0  0  0  0  0  0  0  0  0
   30.4077   47.6722   57.4775 C   0  0  0  0  0  0  0  0  0  0  0  0
   29.1049   47.2066   57.2946 C   0  0  0  0  0  0  0  0  0  0  0  0
   28.0401   47.7800   57.9987 C   0  0  0  0  0  0  0  0  0  0  0  0
   26.7098   47.2725   57.7987 N   0  0  0  0  0  0  0  0  0  0  0  0
   25.5314   48.1007   57.7780 C   0  0  0  0  0  0  0  0  0  0  0  0
   25.6451   49.3565   57.8162 O   0  0  0  0  0  0  0  0  0  0  0  0
   24.1744   47.5071   57.7043 C   0  0  0  0  0  0  0  0  0  0  0  0
   23.9419   46.2838   57.0493 C   0  0  0  0  0  0  0  0  0  0  0  0
   22.6528   45.7467   56.9874 C   0  0  0  0  0  0  0  0  0  0  0  0
   21.5731   46.4209   57.5756 C   0  0  0  0  0  0  0  0  0  0  0  0
   20.1772   45.8491   57.4794 C   0  0  0  0  0  0  0  0  0  0  0  0
   19.5850   46.0611   56.1371 N   0  0  0  0  0  4  0  0  0  0  0  0
   18.3042   45.3326   56.0318 C   0  0  0  0  0  0  0  0  0  0  0  0
   17.7176   45.4242   54.6041 C   0  0  0  0  0  0  0  0  0  0  0  0
   18.2400   46.5859   53.8460 N   0  0  0  0  0  4  0  0  0  0  0  0
   17.3614   46.8899   52.7039 C   0  0  0  0  0  0  0  0  0  0  0  0
   18.3765   47.7675   54.7181 C   0  0  0  0  0  0  0  0  0  0  0  0
   19.3892   47.5076   55.8565 C   0  0  0  0  0  0  0  0  0  0  0  0
   21.7972   47.6499   58.2132 C   0  0  0  0  0  0  0  0  0  0  0  0
   23.0850   48.1890   58.2745 C   0  0  0  0  0  0  0  0  0  0  0  0
   28.3029   48.8004   58.9276 C   0  0  0  0  0  0  0  0  0  0  0  0
   29.6136   49.2661   59.1352 C   0  0  0  0  0  0  0  0  0  0  0  0
   29.8597   50.3393   60.0618 N   0  0  0  0  0  0  0  0  0  0  0  0
   29.2575   50.4200   61.3610 C   0  0  0  0  0  0  0  0  0  0  0  0
   28.5872   49.3588   61.8852 N   0  0  0  0  0  0  0  0  0  0  0  0
   28.0313   49.4242   63.1210 C   0  0  0  0  0  0  0  0  0  0  0  0
   28.1512   50.5876   63.8793 C   0  0  0  0  0  0  0  0  0  0  0  0
   28.8620   51.6733   63.3424 C   0  0  0  0  0  0  0  0  0  0  0  0
   29.0336   52.9456   64.0904 C   0  0  0  0  0  0  0  0  0  0  0  0
   29.2238   54.1521   63.3944 C   0  0  0  0  0  0  0  0  0  0  0  0
   29.3913   55.3493   64.0920 C   0  0  0  0  0  0  0  0  0  0  0  0
   29.3767   55.3359   65.4861 C   0  0  0  0  0  0  0  0  0  0  0  0
   29.2064   54.1646   66.1526 N   0  0  0  0  0  0  0  0  0  0  0  0
   29.0378   52.9845   65.4981 C   0  0  0  0  0  0  0  0  0  0  0  0
   29.3929   51.5571   62.0936 N   0  0  0  0  0  0  0  0  0  0  0  0
  1  2  1  0
  2  3  2  0
  3  4  1  0
  4  5  2  0
  5  6  1  0
  6  7  1  0
  7  8  2  0
  7  9  1  0
  9 10  2  0
 10 11  1  0
 11 12  2  0
 12 13  1  0
 13 14  1  0
 14 15  1  0
 15 16  1  0
 16 17  1  0
 17 18  1  0
 17 19  1  0
 19 20  1  0
 12 21  1  0
 21 22  2  0
  5 23  1  0
 23 24  2  0
 24 25  1  0
 25 26  1  0
 26 27  2  0
 27 28  1  0
 28 29  2  0
 29 30  1  0
 30 31  1  0
 31 32  2  0
 32 33  1  0
 33 34  2  0
 34 35  1  0
 35 36  2  0
 30 37  2  0
 24  2  1  0
 37 26  1  0
 22  9  1  0
 36 31  1  0
 20 14  1  0
M  CHG  2  14   1  17   1
M  END
$$$$
3KFA_B91
     RDKit          3D

 41 46  0  0  0  0  0  0  0  0999 V2000
   35.0918   46.5550   58.7102 C   0  0  0  0  0  0  0  0  0  0  0  0
   33.6605   46.4128   58.3139 C   0  0  0  0  0  0  0  0  0  0  0  0
   32.8338   47.4330   57.9021 C   0  0  0  0  0  0  0  0  0  0  0  0
   31.6057   46.9156   57.7106 N   0  0  0  0  0  0  0  0  0  0  0  0
   30.4213   47.6169   57.2794 C   0  0  0  0  0  0  0  0  0  0  0  0
   29.1444   47.1452   57.6291 C   0  0  0  0  0  0  0  0  0  0  0  0
   27.9887   47.8194   57.2123 C   0  0  0  0  0  0  0  0  0  0  0  0
   26.6981   47.2895   57.5628 N   0  0  0  0  0  0  0  0  0  0  0  0
   25.5312   48.1036   57.7695 C   0  0  0  0  0  0  0  0  0  0  0  0
   25.6649   49.3263   58.0512 O   0  0  0  0  0  0  0  0  0  0  0  0
   24.1714   47.5140   57.7048 C   0  0  0  0  0  0  0  0  0  0  0  0
   23.9429   46.3030   57.0336 C   0  0  0  0  0  0  0  0  0  0  0  0
   22.6575   45.7655   56.9588 C   0  0  0  0  0  0  0  0  0  0  0  0
   21.5671   46.4247   57.5471 C   0  0  0  0  0  0  0  0  0  0  0  0
   20.1932   45.8265   57.3864 C   0  0  0  0  0  0  0  0  0  0  0  0
   21.7924   47.6273   58.2644 C   0  0  0  0  0  0  0  0  0  0  0  0
   20.7125   48.3695   58.9511 C   0  0  0  0  0  0  0  0  0  0  0  0
   19.9019   47.7830   59.8402 C   0  0  0  0  0  0  0  0  0  0  0  0
   18.8755   48.5038   60.5427 N   0  0  0  0  0  0  0  0  0  0  0  0
   18.4656   49.7949   60.4022 C   0  0  0  0  0  0  0  0  0  0  0  0
   17.4424   50.1304   61.2358 N   0  0  0  0  0  0  0  0  0  0  0  0
   17.2216   48.9880   61.9119 C   0  0  0  0  0  0  0  0  0  0  0  0
   16.2856   48.7151   62.9037 C   0  0  0  0  0  0  0  0  0  0  0  0
   15.3671   49.7152   63.3626 N   0  0  0  0  0  0  0  0  0  0  0  0
   14.4119   49.4390   64.4314 C   0  0  0  0  0  0  0  0  0  0  0  0
   13.2131   48.6285   63.9687 C   0  0  0  0  0  0  0  0  0  0  0  0
   13.0652   50.1164   64.2452 C   0  0  0  0  0  0  0  0  0  0  0  0
   16.2710   47.4497   63.4245 N   0  0  0  0  0  0  0  0  0  0  0  0
   17.1435   46.4851   62.9887 C   0  0  0  0  0  0  0  0  0  0  0  0
   18.0581   46.7672   62.0127 N   0  0  0  0  0  0  0  0  0  0  0  0
   18.0719   48.0209   61.4982 C   0  0  0  0  0  0  0  0  0  0  0  0
   23.0854   48.1733   58.3050 C   0  0  0  0  0  0  0  0  0  0  0  0
   28.1131   48.9670   56.4120 C   0  0  0  0  0  0  0  0  0  0  0  0
   29.3792   49.4721   56.0755 C   0  0  0  0  0  0  0  0  0  0  0  0
   29.5040   50.6785   55.1782 C   0  0  0  0  0  0  0  0  0  0  0  0
   29.5226   50.2646   53.8595 F   0  0  0  0  0  0  0  0  0  0  0  0
   28.4368   51.5401   55.3656 F   0  0  0  0  0  0  0  0  0  0  0  0
   30.6708   51.3718   55.4501 F   0  0  0  0  0  0  0  0  0  0  0  0
   30.5267   48.7803   56.4972 C   0  0  0  0  0  0  0  0  0  0  0  0
   31.7168   45.6042   58.0200 C   0  0  0  0  0  0  0  0  0  0  0  0
   32.9653   45.2617   58.4022 N   0  0  0  0  0  0  0  0  0  0  0  0
  1  2  1  0
  2  3  2  0
  3  4  1  0
  4  5  1  0
  5  6  2  0
  6  7  1  0
  7  8  1  0
  8  9  1  0
  9 10  2  0
  9 11  1  0
 11 12  2  0
 12 13  1  0
 13 14  2  0
 14 15  1  0
 14 16  1  0
 16 17  1  0
 17 18  2  0
 18 19  1  0
 19 20  1  0
 20 21  2  0
 21 22  1  0
 22 23  2  0
 23 24  1  0
 24 25  1  0
 25 26  1  0
 26 27  1  0
 23 28  1  0
 28 29  2  0
 29 30  1  0
 30 31  2  0
 16 32  2  0
  7 33  2  0
 33 34  1  0
 34 35  1  0
 35 36  1  0
 35 37  1  0
 35 38  1  0
 34 39  2  0
  4 40  1  0
 40 41  2  0
 41  2  1  0
 39  5  1  0
 32 11  1  0
 31 19  1  0
 31 22  1  0
 27 25  1  0
M  END
$$$$
