1FPU_PRC
     RDKit          3D

 29 32  0  0  0  0  0  0  0  0999 V2000
   -1.1260    3.9103   -2.8188 C   0  0  0  0  0  0  0  0  0  0  0  0
   -0.8192    2.5100   -2.3624 C   0  0  0  0  0  0  0  0  0  0  0  0
    0.3307    2.2678   -1.5934 C   0  0  0  0  0  0  0  0  0  0  0  0
    0.6274    0.9791   -1.1461 C   0  0  0  0  0  0  0  0  0  0  0  0
   -0.2134   -0.0956   -1.4728 C   0  0  0  0  0  0  0  0  0  0  0  0
    0.0770   -1.4322   -1.0305 N   0  0  0  0  0  0  0  0  0  0  0  0
    0.7704   -1.7400    0.1884 C   0  0  0  0  0  0  0  0  0  0  0  0
    1.5622   -2.7205    0.2055 O   0  0  0  0  0  0  0  0  0  0  0  0
    0.5421   -0.9675    1.4330 C   0  0  0  0  0  0  0  0  0  0  0  0
   -0.6790   -0.3141    1.6697 C   0  0  0  0  0  0  0  0  0  0  0  0
   -0.8750    0.3987    2.8533 C   0  0  0  0  0  0  0  0  0  0  0  0
    0.1490    0.4474    3.7996 C   0  0  0  0  0  0  0  0  0  0  0  0
    1.3213   -0.1995    3.5673 N   0  0  0  0  0  0  0  0  0  0  0  0
    1.5373   -0.9011    2.4224 C   0  0  0  0  0  0  0  0  0  0  0  0
   -1.3402    0.1348   -2.2700 C   0  0  0  0  0  0  0  0  0  0  0  0
   -1.6697    1.4331   -2.6970 C   0  0  0  0  0  0  0  0  0  0  0  0
   -2.8577    1.6520   -3.4785 N   0  0  0  0  0  0  0  0  0  0  0  0
   -4.1285    1.0814   -3.1368 C   0  0  0  0  0  0  0  0  0  0  0  0
   -5.1848    1.2302   -3.9783 N   0  0  0  0  0  0  0  0  0  0  0  0
   -6.4013    0.7125   -3.6690 C   0  0  0  0  0  0  0  0  0  0  0  0
   -6.5840    0.0219   -2.4706 C   0  0  0  0  0  0  0  0  0  0  0  0
   -5.4926   -0.1142   -1.5979 C   0  0  0  0  0  0  0  0  0  0  0  0
   -5.5988   -0.8382   -0.3054 C   0  0  0  0  0  0  0  0  0  0  0  0
   -6.8139   -0.9270    0.3981 C   0  0  0  0  0  0  0  0  0  0  0  0
   -6.8704   -1.6011    1.6193 C   0  0  0  0  0  0  0  0  0  0  0  0
   -5.7118   -2.1798    2.1368 C   0  0  0  0  0  0  0  0  0  0  0  0
   -4.5408   -2.0828    1.4552 N   0  0  0  0  0  0  0  0  0  0  0  0
   -4.4574   -1.4321    0.2644 C   0  0  0  0  0  0  0  0  0  0  0  0
   -4.2956    0.4209   -1.9595 N   0  0  0  0  0  0  0  0  0  0  0  0
  1  2  1  0
  2  3  2  0
  3  4  1  0
  4  5  2  0
  5  6  1  0
  6  7  1  0
  7  8  2  0
  7  9  1  0
  9 10  2  0
 10 11  1  0
 11 12  2  0
 12 13  1  0
 13 14  2  0
  5 15  1  0
 15 16  2  0
 16 17  1  0
 17 18  1  0
 18 19  2  0
 19 20  1  0
 20 21  2  0
 21 22  1  0
 22 23  1  0
 23 24  2  0
 24 25  1  0
 25 26  2  0
 26 27  1  0
 27 28  2  0
 22 29  2  0
 16  2  1  0
 29 18  1  0
 14  9  1  0
 28 23  1  0
M  END
$$$$
6HD6_FYH
     RDKit          3D

 27 29  0  0  0  0  0  0  0  0999 V2000
   16.0439   -7.5501   16.3120 O   0  0  0  0  0  0  0  0  0  0  0  0
   16.5697   -8.5380   16.8948 C   0  0  0  0  0  0  0  0  0  0  0  0
   16.5959   -8.5852   18.3316 N   0  0  0  0  0  0  0  0  0  0  0  0
   15.6933   -7.8447   19.1717 C   0  0  0  0  0  0  0  0  0  0  0  0
   16.1140   -7.4392   20.4464 C   0  0  0  0  0  0  0  0  0  0  0  0
   15.2490   -6.7365   21.2907 C   0  0  0  0  0  0  0  0  0  0  0  0
   13.9366   -6.4403   20.8755 C   0  0  0  0  0  0  0  0  0  0  0  0
   13.0253   -5.7373   21.6802 O   0  0  0  0  0  0  0  0  0  0  0  0
   13.2957   -5.2385   22.9884 C   0  0  0  0  0  0  0  0  0  0  0  0
   13.6141   -6.2813   23.8399 F   0  0  0  0  0  0  0  0  0  0  0  0
   12.1673   -4.6017   23.4672 F   0  0  0  0  0  0  0  0  0  0  0  0
   14.3370   -4.3288   22.9461 F   0  0  0  0  0  0  0  0  0  0  0  0
   13.5117   -6.8637   19.6111 C   0  0  0  0  0  0  0  0  0  0  0  0
   14.3765   -7.5654   18.7665 C   0  0  0  0  0  0  0  0  0  0  0  0
   17.1982   -9.6119   16.0872 C   0  0  0  0  0  0  0  0  0  0  0  0
   17.4449  -10.8812   16.6408 C   0  0  0  0  0  0  0  0  0  0  0  0
   18.0268  -11.8894   15.8685 C   0  0  0  0  0  0  0  0  0  0  0  0
   18.3661  -11.6475   14.5366 C   0  0  0  0  0  0  0  0  0  0  0  0
   18.1241  -10.3903   13.9634 C   0  0  0  0  0  0  0  0  0  0  0  0
   18.4630  -10.1318   12.5133 C   0  0  0  0  0  0  0  0  0  0  0  0
   17.2567  -10.1426   11.6530 N   0  0  0  0  0  4  0  0  0  0  0  0
   16.6739  -11.4998   11.5589 C   0  0  0  0  0  0  0  0  0  0  0  0
   15.5022  -11.5139   10.5662 C   0  0  0  0  0  0  0  0  0  0  0  0
   15.9218  -11.0782    9.2883 O   0  0  0  0  0  0  0  0  0  0  0  0
   16.3845   -9.7448    9.3696 C   0  0  0  0  0  0  0  0  0  0  0  0
   17.5999   -9.6483   10.3029 C   0  0  0  0  0  0  0  0  0  0  0  0
   17.5345   -9.3798   14.7404 C   0  0  0  0  0  0  0  0  0  0  0  0
  1  2  2  0
  2  3  1  0
  3  4  1  0
  4  5  2  0
  5  6  1  0
  6  7  2  0
  7  8  1  0
  8  9  1  0
  9 10  1  0
  9 11  1  0
  9 12  1  0
  7 13  1  0
 13 14  2  0
  2 15  1  0
 15 16  2  0
 16 17  1  0
 17 18  2  0
 18 19  1  0
 19 20  1  0
 20 21  1  0
 21 22  1  0
 22 23  1  0
 23 24  1  0
 24 25  1  0
 25 26  1  0
 19 27  2  0
 14  4  1  0
 27 15  1  0
 26 21  1  0
M  CHG  1  21   1
M  END
$$$$
6HD4_FYW
     RDKit          3D

 32 35  0  0  0  0  0  0  0  0999 V2000
    0.6735   -0.6853    3.0333 O   0  0  0  0  0  0  0  0  0  0  0  0
    0.2992   -0.5621    1.8361 C   0  0  0  0  0  0  0  0  0  0  0  0
    1.0717   -1.1949    0.8019 N   0  0  0  0  0  0  0  0  0  0  0  0
    1.2182   -0.6805   -0.5337 C   0  0  0  0  0  0  0  0  0  0  0  0
    1.4412   -1.5695   -1.5935 C   0  0  0  0  0  0  0  0  0  0  0  0
    1.5544   -1.0950   -2.9032 C   0  0  0  0  0  0  0  0  0  0  0  0
    1.4598    0.2744   -3.1759 C   0  0  0  0  0  0  0  0  0  0  0  0
    1.5647    0.6933   -4.5121 O   0  0  0  0  0  0  0  0  0  0  0  0
    1.4672    2.0429   -4.9619 C   0  0  0  0  0  0  0  0  0  0  0  0
    0.2334    2.5701   -4.6239 F   0  0  0  0  0  0  0  0  0  0  0  0
    1.6007    2.0679   -6.3365 F   0  0  0  0  0  0  0  0  0  0  0  0
    2.4760    2.8061   -4.4020 F   0  0  0  0  0  0  0  0  0  0  0  0
    1.2661    1.1729   -2.1091 C   0  0  0  0  0  0  0  0  0  0  0  0
    1.1561    0.6986   -0.7990 C   0  0  0  0  0  0  0  0  0  0  0  0
   -0.9421    0.1940    1.5389 C   0  0  0  0  0  0  0  0  0  0  0  0
   -1.3681    1.2228    2.3886 C   0  0  0  0  0  0  0  0  0  0  0  0
   -2.4807    1.9412    2.0894 N   0  0  0  0  0  0  0  0  0  0  0  0
   -3.2317    1.6968    0.9813 C   0  0  0  0  0  0  0  0  0  0  0  0
   -4.3487    2.5525    0.6980 N   0  0  0  0  0  0  0  0  0  0  0  0
   -5.3382    2.9011    1.7031 C   0  0  0  0  0  0  0  0  0  0  0  0
   -6.0501    4.1384    1.1695 C   0  0  0  0  0  0  0  0  0  0  0  0
   -5.6958    4.2120   -0.3182 C   0  0  0  0  0  0  0  0  0  0  0  0
   -5.5163    5.5388   -0.7376 O   0  0  0  0  0  0  0  0  0  0  0  0
   -4.4023    3.4205   -0.4668 C   0  0  0  0  0  0  0  0  0  0  0  0
   -2.8731    0.6376    0.1178 C   0  0  0  0  0  0  0  0  0  0  0  0
   -3.6870    0.2672   -1.0633 C   0  0  0  0  0  0  0  0  0  0  0  0
   -5.0702    0.0654   -0.9610 C   0  0  0  0  0  0  0  0  0  0  0  0
   -5.7910   -0.2770   -2.0598 N   0  0  0  0  0  0  0  0  0  0  0  0
   -5.1910   -0.4340   -3.2679 C   0  0  0  0  0  0  0  0  0  0  0  0
   -3.8507   -0.2542   -3.3910 N   0  0  0  0  0  0  0  0  0  0  0  0
   -3.0904    0.0871   -2.3189 C   0  0  0  0  0  0  0  0  0  0  0  0
   -1.7252   -0.1103    0.4165 C   0  0  0  0  0  0  0  0  0  0  0  0
  1  2  2  0
  2  3  1  0
  3  4  1  0
  4  5  2  0
  5  6  1  0
  6  7  2  0
  7  8  1  0
  8  9  1  0
  9 10  1  0
  9 11  1  0
  9 12  1  0
  7 13  1  0
 13 14  2  0
  2 15  1  0
 15 16  2  0
 16 17  1  0
 17 18  2  0
 18 19  1  0
 19 20  1  0
 20 21  1  0
 21 22  1  0
 22 23  1  0
 22 24  1  0
 18 25  1  0
 25 26  1  0
 26 27  2  0
 27 28  1  0
 28 29  2  0
 29 30  1  0
 30 31  2  0
 25 32  2  0
 14  4  1  0
 32 15  1  0
 24 19  1  0
 31 26  1  0
M  END
$$$$
2QOH_P3Y
     RDKit          3D

 28 31  0  0  0  0  0  0  0  0999 V2000
   -3.3965   -3.4938    1.5460 C   0  0  0  0  0  0  0  0  0  0  0  0
   -4.0740   -2.5923    2.4156 O   0  0  0  0  0  0  0  0  0  0  0  0
   -4.1781   -2.7494    3.8079 C   0  0  0  0  0  0  0  0  0  0  0  0
   -3.6962   -3.9040    4.4575 C   0  0  0  0  0  0  0  0  0  0  0  0
   -3.8593   -4.0609    5.8354 C   0  0  0  0  0  0  0  0  0  0  0  0
   -4.5050   -3.0753    6.5810 C   0  0  0  0  0  0  0  0  0  0  0  0
   -4.9784   -1.9217    5.9540 C   0  0  0  0  0  0  0  0  0  0  0  0
   -4.8033   -1.7382    4.5722 C   0  0  0  0  0  0  0  0  0  0  0  0
   -5.2953   -0.4916    3.9458 C   0  0  0  0  0  0  0  0  0  0  0  0
   -6.5319    0.1153    4.1689 C   0  0  0  0  0  0  0  0  0  0  0  0
   -6.6464    1.2469    3.4352 N   0  0  0  0  0  0  0  0  0  0  0  0
   -5.4889    1.3616    2.7657 C   0  0  0  0  0  0  0  0  0  0  0  0
   -5.1525    2.3660    1.9201 N   0  0  0  0  0  0  0  0  0  0  0  0
   -3.9200    2.3568    1.3290 C   0  0  0  0  0  0  0  0  0  0  0  0
   -2.9897    1.3180    1.6045 C   0  0  0  0  0  0  0  0  0  0  0  0
   -1.6617    1.2832    0.9436 C   0  0  0  0  0  0  0  0  0  0  0  0
   -0.9275    2.4586    0.7195 C   0  0  0  0  0  0  0  0  0  0  0  0
    0.2891    2.4018    0.1159 N   0  0  0  0  0  0  0  0  0  0  0  0
    0.8392    1.2253   -0.2840 C   0  0  0  0  0  0  0  0  0  0  0  0
    0.1581    0.0191   -0.0698 C   0  0  0  0  0  0  0  0  0  0  0  0
    0.7410   -1.2672   -0.5087 C   0  0  0  0  0  0  0  0  0  0  0  0
    1.4401   -1.2989   -1.5580 O   0  0  0  0  0  0  0  0  0  0  0  0
    0.5191   -2.4823    0.2311 N   0  0  0  0  0  0  0  0  0  0  0  0
    0.6183   -2.4797    1.6949 C   0  0  0  0  0  0  0  0  0  0  0  0
    0.3529   -3.7395   -0.5010 C   0  0  0  0  0  0  0  0  0  0  0  0
   -1.1085    0.0621    0.5263 C   0  0  0  0  0  0  0  0  0  0  0  0
   -3.3570    0.2973    2.5095 C   0  0  0  0  0  0  0  0  0  0  0  0
   -4.6370    0.3347    3.0521 C   0  0  0  0  0  0  0  0  0  0  0  0
  1  2  1  0
  2  3  1  0
  3  4  2  0
  4  5  1  0
  5  6  2  0
  6  7  1  0
  7  8  2  0
  8  9  1  0
  9 10  2  0
 10 11  1  0
 11 12  1  0
 12 13  2  0
 13 14  1  0
 14 15  2  0
 15 16  1  0
 16 17  2  0
 17 18  1  0
 18 19  2  0
 19 20  1  0
 20 21  1  0
 21 22  2  0
 21 23  1  0
 23 24  1  0
 23 25  1  0
 20 26  2  0
 15 27  1  0
 27 28  2  0
  8  3  1  0
 28  9  1  0
 28 12  1  0
 26 16  1  0
M  END
$$$$
3KF4_B90
     RDKit          3D

 32 36  0  0  0  0  0  0  0  0999 V2000
   -4.2752   -1.4809    1.1284 C   0  0  0  0  0  0  0  0  0  0  0  0
   -4.5525   -0.0549    0.7317 C   0  0  0  0  0  0  0  0  0  0  0  0
   -5.9031    0.3866    0.7014 C   0  0  0  0  0  0  0  0  0  0  0  0
   -6.2238    1.7183    0.3879 C   0  0  0  0  0  0  0  0  0  0  0  0
   -5.1753    2.5845    0.1070 C   0  0  0  0  0  0  0  0  0  0  0  0
   -5.2374    3.8852   -0.2156 N   0  0  0  0  0  0  0  0  0  0  0  0
   -4.0017    4.3258   -0.4215 N   0  0  0  0  0  0  0  0  0  0  0  0
   -3.1427    3.2961   -0.2282 C   0  0  0  0  0  0  0  0  0  0  0  0
   -3.8745    2.1747    0.1131 C   0  0  0  0  0  0  0  0  0  0  0  0
   -3.5043    0.8548    0.3927 C   0  0  0  0  0  0  0  0  0  0  0  0
   -2.0731    0.4840    0.3615 C   0  0  0  0  0  0  0  0  0  0  0  0
   -1.6246   -0.5550   -0.3526 C   0  0  0  0  0  0  0  0  0  0  0  0
   -0.2340   -0.9134   -0.4171 N   0  0  0  0  0  0  0  0  0  0  0  0
    0.2503   -2.1242   -0.7953 C   0  0  0  0  0  0  0  0  0  0  0  0
    1.6098   -2.1846   -0.8144 N   0  0  0  0  0  0  0  0  0  0  0  0
    1.9685   -0.9442   -0.4363 C   0  0  0  0  0  0  0  0  0  0  0  0
    3.2417   -0.3968   -0.3112 C   0  0  0  0  0  0  0  0  0  0  0  0
    4.4178   -1.1739   -0.5894 N   0  0  0  0  0  0  0  0  0  0  0  0
    5.7516   -0.7594   -0.2495 C   0  0  0  0  0  0  0  0  0  0  0  0
    6.8186   -1.1189   -1.0860 C   0  0  0  0  0  0  0  0  0  0  0  0
    8.1275   -0.7467   -0.7658 C   0  0  0  0  0  0  0  0  0  0  0  0
    8.3874   -0.0209    0.4044 C   0  0  0  0  0  0  0  0  0  0  0  0
   10.0659    0.4561    0.8314 P   0  0  0  0  0  5  0  0  0  0  0  0
   10.5411   -0.3439    2.3889 C   0  0  0  0  0  0  0  0  0  0  0  0
   10.1530    2.2577    1.0297 C   0  0  0  0  0  0  0  0  0  0  0  0
   11.0269    0.0324   -0.2564 O   0  0  0  0  0  0  0  0  0  0  0  0
    7.3290    0.3166    1.2573 C   0  0  0  0  0  0  0  0  0  0  0  0
    6.0198   -0.0545    0.9373 C   0  0  0  0  0  0  0  0  0  0  0  0
    3.3252    0.9266    0.0254 N   0  0  0  0  0  0  0  0  0  0  0  0
    2.2033    1.6834    0.2448 C   0  0  0  0  0  0  0  0  0  0  0  0
    0.9599    1.1301    0.1230 N   0  0  0  0  0  0  0  0  0  0  0  0
    0.8732   -0.1830   -0.2015 C   0  0  0  0  0  0  0  0  0  0  0  0
  1  2  1  0
  2  3  2  0
  3  4  1  0
  4  5  2  0
  5  6  1  0
  6  7  1  0
  7  8  2  0
  8  9  1  0
  9 10  2  0
 10 11  1  0
 11 12  2  0
 12 13  1  0
 13 14  1  0
 14 15  2  0
 15 16  1  0
 16 17  2  0
 17 18  1  0
 18 19  1  0
 19 20  2  0
 20 21  1  0
 21 22  2  0
 22 23  1  0
 23 24  1  0
 23 25  1  0
 23 26  2  0
 22 27  1  0
 27 28  2  0
 17 29  1  0
 29 30  2  0
 30 31  1  0
 31 32  2  0
 10  2  1  0
 32 13  1  0
  9  5  1  0
 32 16  1  0
 28 19  1  0
M  END
$$$$
3MS9_MS9
     RDKit          3D

 12 12  0  0  0  0  0  0  0  0999 V2000
   14.3117   -6.8341   15.9482 C   0  0  0  0  0  0  0  0  0  0  0  0
   15.1752   -7.8693   15.4944 O   0  0  0  0  0  0  0  0  0  0  0  0
   16.2326   -8.3628   16.2654 C   0  0  0  0  0  0  0  0  0  0  0  0
   16.4280   -7.9167   17.4298 O   0  0  0  0  0  0  0  0  0  0  0  0
   17.0893   -9.4508   15.7433 C   0  0  0  0  0  0  0  0  0  0  0  0
   17.5623  -10.4249   16.6419 C   0  0  0  0  0  0  0  0  0  0  0  0
   18.3070  -11.5140   16.1863 C   0  0  0  0  0  0  0  0  0  0  0  0
   18.5919  -11.6477   14.8274 C   0  0  0  0  0  0  0  0  0  0  0  0
   19.5216  -13.0217   14.2569 Cl  0  0  0  0  0  0  0  0  0  0  0  0
   18.1479  -10.6800   13.9233 C   0  0  0  0  0  0  0  0  0  0  0  0
   17.4118   -9.5692   14.3669 C   0  0  0  0  0  0  0  0  0  0  0  0
   17.0611   -8.5542   13.4165 N   0  0  0  0  0  0  0  0  0  0  0  0
  1  2  1  0
  2  3  1  0
  3  4  2  0
  3  5  1  0
  5  6  2  0
  6  7  1  0
  7  8  2  0
  8  9  1  0
  8 10  1  0
 10 11  2  0
 11 12  1  0
 11  5  1  0
M  END
$$$$
3K5V_STJ
     RDKit          3D

 27 29  0  0  0  0  0  0  0  0999 V2000
   -2.7824    2.0221    8.2965 N   0  0  0  0  0  0  0  0  0  0  0  0
   -2.2794    2.2581    6.9787 C   0  0  0  0  0  0  0  0  0  0  0  0
   -2.4419    3.3961    6.4609 O   0  0  0  0  0  0  0  0  0  0  0  0
   -1.5899    1.1932    6.2092 C   0  0  0  0  0  0  0  0  0  0  0  0
   -0.9686    0.1132    6.8599 C   0  0  0  0  0  0  0  0  0  0  0  0
   -0.3227   -0.8794    6.1215 C   0  0  0  0  0  0  0  0  0  0  0  0
   -0.2771   -0.8051    4.7287 C   0  0  0  0  0  0  0  0  0  0  0  0
   -0.8713    0.2764    4.0530 C   0  0  0  0  0  0  0  0  0  0  0  0
   -0.8377    0.3728    2.5706 C   0  0  0  0  0  0  0  0  0  0  0  0
    0.2225   -0.1604    1.8190 C   0  0  0  0  0  0  0  0  0  0  0  0
    0.1931   -0.0409    0.4251 C   0  0  0  0  0  0  0  0  0  0  0  0
    1.2812   -0.5528   -0.3619 N   0  0  0  0  0  0  0  0  0  0  0  0
    1.2339   -0.7175   -1.7895 C   0  0  0  0  0  0  0  0  0  0  0  0
    2.3995   -0.5245   -2.5439 C   0  0  0  0  0  0  0  0  0  0  0  0
    2.3859   -0.7009   -3.9309 C   0  0  0  0  0  0  0  0  0  0  0  0
    1.2020   -1.0919   -4.5852 C   0  0  0  0  0  0  0  0  0  0  0  0
    1.1291   -1.2826   -5.9746 O   0  0  0  0  0  0  0  0  0  0  0  0
    2.2102   -1.1082   -6.8879 C   0  0  0  0  0  0  0  0  0  0  0  0
    3.2402   -1.9788   -6.5795 F   0  0  0  0  0  0  0  0  0  0  0  0
    2.6663    0.1971   -6.8435 F   0  0  0  0  0  0  0  0  0  0  0  0
    1.7648   -1.3808   -8.1669 F   0  0  0  0  0  0  0  0  0  0  0  0
    0.0454   -1.3069   -3.8271 C   0  0  0  0  0  0  0  0  0  0  0  0
    0.0588   -1.1298   -2.4407 C   0  0  0  0  0  0  0  0  0  0  0  0
   -0.8436    0.6110   -0.1671 N   0  0  0  0  0  0  0  0  0  0  0  0
   -1.8585    1.1308    0.5682 C   0  0  0  0  0  0  0  0  0  0  0  0
   -1.8491    1.0113    1.9202 N   0  0  0  0  0  0  0  0  0  0  0  0
   -1.5303    1.2674    4.8048 C   0  0  0  0  0  0  0  0  0  0  0  0
  1  2  1  0
  2  3  2  0
  2  4  1  0
  4  5  2  0
  5  6  1  0
  6  7  2  0
  7  8  1  0
  8  9  1  0
  9 10  2  0
 10 11  1  0
 11 12  1  0
 12 13  1  0
 13 14  2  0
 14 15  1  0
 15 16  2  0
 16 17  1  0
 17 18  1  0
 18 19  1  0
 18 20  1  0
 18 21  1  0
 16 22  1  0
 22 23  2  0
 11 24  2  0
 24 25  1  0
 25 26  2  0
  8 27  2  0
 27  4  1  0
 26  9  1  0
 23 13  1  0
M  END
$$$$
3K5V_STI
     RDKit          3D

 37 41  0  0  0  0  0  0  0  0999 V2000
   13.9462   -5.3484   22.1364 C   0  0  0  0  0  0  0  0  0  0  0  0
   14.3503   -6.2918   21.0355 C   0  0  0  0  0  0  0  0  0  0  0  0
   15.6804   -6.2840   20.5883 C   0  0  0  0  0  0  0  0  0  0  0  0
   16.0849   -7.1176   19.5437 C   0  0  0  0  0  0  0  0  0  0  0  0
   15.1615   -7.9700   18.9170 C   0  0  0  0  0  0  0  0  0  0  0  0
   15.5569   -8.8459   17.8468 N   0  0  0  0  0  0  0  0  0  0  0  0
   16.5906   -8.5311   16.8983 C   0  0  0  0  0  0  0  0  0  0  0  0
   16.9117   -7.3270   16.7012 O   0  0  0  0  0  0  0  0  0  0  0  0
   17.2505   -9.6005   16.1102 C   0  0  0  0  0  0  0  0  0  0  0  0
   17.2182  -10.9397   16.5393 C   0  0  0  0  0  0  0  0  0  0  0  0
   17.8502  -11.9391   15.7941 C   0  0  0  0  0  0  0  0  0  0  0  0
   18.5280  -11.6198   14.6086 C   0  0  0  0  0  0  0  0  0  0  0  0
   19.2285  -12.7015   13.8190 C   0  0  0  0  0  0  0  0  0  0  0  0
   20.4929  -13.1302   14.4637 N   0  0  0  0  0  4  0  0  0  0  0  0
   20.9990  -14.3497   13.8005 C   0  0  0  0  0  0  0  0  0  0  0  0
   22.3147  -14.8254   14.4413 C   0  0  0  0  0  0  0  0  0  0  0  0
   23.3495  -13.7690   14.4597 N   0  0  0  0  0  4  0  0  0  0  0  0
   23.9503  -13.5535   13.1290 C   0  0  0  0  0  0  0  0  0  0  0  0
   22.8330  -12.5148   15.0490 C   0  0  0  0  0  0  0  0  0  0  0  0
   21.5121  -12.0595   14.4040 C   0  0  0  0  0  0  0  0  0  0  0  0
   18.5737  -10.2838   14.1832 C   0  0  0  0  0  0  0  0  0  0  0  0
   17.9432   -9.2832   14.9279 C   0  0  0  0  0  0  0  0  0  0  0  0
   13.8421   -8.0108   19.3884 C   0  0  0  0  0  0  0  0  0  0  0  0
   13.4326   -7.1975   20.4541 C   0  0  0  0  0  0  0  0  0  0  0  0
   12.0729   -7.2825   20.9034 N   0  0  0  0  0  0  0  0  0  0  0  0
   11.7221   -7.7111   22.2249 C   0  0  0  0  0  0  0  0  0  0  0  0
   12.6767   -8.1532   23.0871 N   0  0  0  0  0  0  0  0  0  0  0  0
   12.3496   -8.5758   24.3341 C   0  0  0  0  0  0  0  0  0  0  0  0
   11.0186   -8.5651   24.7479 C   0  0  0  0  0  0  0  0  0  0  0  0
   10.0369   -8.1080   23.8537 C   0  0  0  0  0  0  0  0  0  0  0  0
    8.5971   -8.0756   24.2190 C   0  0  0  0  0  0  0  0  0  0  0  0
    8.1738   -7.9292   25.5532 C   0  0  0  0  0  0  0  0  0  0  0  0
    6.8123   -7.8943   25.8588 C   0  0  0  0  0  0  0  0  0  0  0  0
    5.8767   -7.9999   24.8301 C   0  0  0  0  0  0  0  0  0  0  0  0
    6.2931   -8.1304   23.5438 N   0  0  0  0  0  0  0  0  0  0  0  0
    7.6128   -8.1661   23.2179 C   0  0  0  0  0  0  0  0  0  0  0  0
   10.4189   -7.7015   22.6111 N   0  0  0  0  0  0  0  0  0  0  0  0
  1  2  1  0
  2  3  2  0
  3  4  1  0
  4  5  2  0
  5  6  1  0
  6  7  1  0
  7  8  2  0
  7  9  1  0
  9 10  2  0
 10 11  1  0
 11 12  2  0
 12 13  1  0
 13 14  1  0
 14 15  1  0
 15 16  1  0
 16 17  1  0
 17 18  1  0
 17 19  1  0
 19 20  1  0
 12 21  1  0
 21 22  2  0
  5 23  1  0
 23 24  2  0
 24 25  1  0
 25 26  1  0
 26 27  2  0
 27 28  1  0
 28 29  2  0
 29 30  1  0
 30 31  1  0
 31 32  2  0
 32 33  1  0
 33 34  2  0
 34 35  1  0
 35 36  2  0
 30 37  2  0
 24  2  1  0
 37 26  1  0
 22  9  1  0
 36 31  1  0
 20 14  1  0
M  CHG  2  14   1  17   1
M  END
$$$$
3KFA_B91
     RDKit          3D

 41 46  0  0  0  0  0  0  0  0999 V2000
   16.6195  -11.4849   24.8922 C   0  0  0  0  0  0  0  0  0  0  0  0
   16.0437  -10.2356   24.3142 C   0  0  0  0  0  0  0  0  0  0  0  0
   16.0419   -9.8912   22.9818 C   0  0  0  0  0  0  0  0  0  0  0  0
   15.3645   -8.7346   22.8567 N   0  0  0  0  0  0  0  0  0  0  0  0
   15.1091   -7.9998   21.6420 C   0  0  0  0  0  0  0  0  0  0  0  0
   15.9782   -8.1145   20.5436 C   0  0  0  0  0  0  0  0  0  0  0  0
   15.7237   -7.4269   19.3493 C   0  0  0  0  0  0  0  0  0  0  0  0
   16.6398   -7.5625   18.2487 N   0  0  0  0  0  0  0  0  0  0  0  0
   16.2450   -7.4847   16.8685 C   0  0  0  0  0  0  0  0  0  0  0  0
   15.0433   -7.7005   16.5498 O   0  0  0  0  0  0  0  0  0  0  0  0
   17.2423   -7.2033   15.8068 C   0  0  0  0  0  0  0  0  0  0  0  0
   18.4663   -6.5890   16.1136 C   0  0  0  0  0  0  0  0  0  0  0  0
   19.3905   -6.3081   15.1066 C   0  0  0  0  0  0  0  0  0  0  0  0
   19.1151   -6.6283   13.7683 C   0  0  0  0  0  0  0  0  0  0  0  0
   20.1258   -6.2509   12.7161 C   0  0  0  0  0  0  0  0  0  0  0  0
   17.8999   -7.2876   13.4519 C   0  0  0  0  0  0  0  0  0  0  0  0
   17.5420   -7.7002   12.0769 C   0  0  0  0  0  0  0  0  0  0  0  0
   18.3535   -8.4575   11.3288 C   0  0  0  0  0  0  0  0  0  0  0  0
   17.9985   -8.8973   10.0070 N   0  0  0  0  0  0  0  0  0  0  0  0
   16.9096   -8.5897    9.2498 C   0  0  0  0  0  0  0  0  0  0  0  0
   16.9174   -9.1870    8.0262 N   0  0  0  0  0  0  0  0  0  0  0  0
   18.0657   -9.8891    8.0418 C   0  0  0  0  0  0  0  0  0  0  0  0
   18.6185  -10.7000    7.0526 C   0  0  0  0  0  0  0  0  0  0  0  0
   17.9277  -10.9121    5.8019 N   0  0  0  0  0  0  0  0  0  0  0  0
   18.4260  -11.4936    4.5420 C   0  0  0  0  0  0  0  0  0  0  0  0
   19.9206  -11.4194    4.2769 C   0  0  0  0  0  0  0  0  0  0  0  0
   19.2742  -12.7469    4.6742 C   0  0  0  0  0  0  0  0  0  0  0  0
   19.8114  -11.3028    7.3435 N   0  0  0  0  0  0  0  0  0  0  0  0
   20.4472  -11.1112    8.5434 C   0  0  0  0  0  0  0  0  0  0  0  0
   19.8946  -10.3066    9.4991 N   0  0  0  0  0  0  0  0  0  0  0  0
   18.7090   -9.7139    9.2193 C   0  0  0  0  0  0  0  0  0  0  0  0
   16.9653   -7.5358   14.4700 C   0  0  0  0  0  0  0  0  0  0  0  0
   14.6083   -6.5768   19.2693 C   0  0  0  0  0  0  0  0  0  0  0  0
   13.7429   -6.4254   20.3649 C   0  0  0  0  0  0  0  0  0  0  0  0
   12.5145   -5.5565   20.2511 C   0  0  0  0  0  0  0  0  0  0  0  0
   12.1599   -5.0448   21.4875 F   0  0  0  0  0  0  0  0  0  0  0  0
   11.4668   -6.3126   19.7595 F   0  0  0  0  0  0  0  0  0  0  0  0
   12.7439   -4.4935   19.3947 F   0  0  0  0  0  0  0  0  0  0  0  0
   13.9849   -7.1624   21.5362 C   0  0  0  0  0  0  0  0  0  0  0  0
   14.9667   -8.4147   24.1085 C   0  0  0  0  0  0  0  0  0  0  0  0
   15.3607   -9.3201   25.0291 N   0  0  0  0  0  0  0  0  0  0  0  0
  1  2  1  0
  2  3  2  0
  3  4  1  0
  4  5  1  0
  5  6  2  0
  6  7  1  0
  7  8  1  0
  8  9  1  0
  9 10  2  0
  9 11  1  0
 11 12  2  0
 12 13  1  0
 13 14  2  0
 14 15  1  0
 14 16  1  0
 16 17  1  0
 17 18  2  0
 18 19  1  0
 19 20  1  0
 20 21  2  0
 21 22  1  0
 22 23  2  0
 23 24  1  0
 24 25  1  0
 25 26  1  0
 26 27  1  0
 23 28  1  0
 28 29  2  0
 29 30  1  0
 30 31  2  0
 16 32  2  0
  7 33  2  0
 33 34  1  0
 34 35  1  0
 35 36  1  0
 35 37  1  0
 35 38  1  0
 34 39  2  0
  4 40  1  0
 40 41  2  0
 41  2  1  0
 39  5  1  0
 32 11  1  0
 31 19  1  0
 31 22  1  0
 27 25  1  0
M  END
$$$$
