1FPU_PRC
     RDKit          3D

 29 32  0  0  0  0  0  0  0  0999 V2000
   -5.2012   60.2267   30.7520 C   0  0  0  0  0  0  0  0  0  0  0  0
   -3.7101   60.0293   30.6912 C   0  0  0  0  0  0  0  0  0  0  0  0
   -3.2023   58.8564   30.1119 C   0  0  0  0  0  0  0  0  0  0  0  0
   -1.8264   58.6211   30.0711 C   0  0  0  0  0  0  0  0  0  0  0  0
   -0.9285   59.5632   30.5983 C   0  0  0  0  0  0  0  0  0  0  0  0
    0.4905   59.3278   30.5980 N   0  0  0  0  0  0  0  0  0  0  0  0
    1.1753   58.5809   29.5781 C   0  0  0  0  0  0  0  0  0  0  0  0
    0.6465   58.4474   28.4403 O   0  0  0  0  0  0  0  0  0  0  0  0
    2.5196   58.0073   29.8288 C   0  0  0  0  0  0  0  0  0  0  0  0
    2.9951   57.8068   31.1365 C   0  0  0  0  0  0  0  0  0  0  0  0
    4.2616   57.2584   31.3464 C   0  0  0  0  0  0  0  0  0  0  0  0
    5.0463   56.9073   30.2481 C   0  0  0  0  0  0  0  0  0  0  0  0
    4.5751   57.0959   28.9880 N   0  0  0  0  0  0  0  0  0  0  0  0
    3.3453   57.6274   28.7553 C   0  0  0  0  0  0  0  0  0  0  0  0
   -1.4320   60.7350   31.1797 C   0  0  0  0  0  0  0  0  0  0  0  0
   -2.8092   60.9939   31.1995 C   0  0  0  0  0  0  0  0  0  0  0  0
   -3.2716   62.2294   31.7626 N   0  0  0  0  0  0  0  0  0  0  0  0
   -3.9612   63.2142   30.9838 C   0  0  0  0  0  0  0  0  0  0  0  0
   -4.4580   64.3253   31.5872 N   0  0  0  0  0  0  0  0  0  0  0  0
   -5.1123   65.2743   30.8705 C   0  0  0  0  0  0  0  0  0  0  0  0
   -5.2772   65.1214   29.4942 C   0  0  0  0  0  0  0  0  0  0  0  0
   -4.7445   63.9802   28.8725 C   0  0  0  0  0  0  0  0  0  0  0  0
   -4.8756   63.7426   27.4108 C   0  0  0  0  0  0  0  0  0  0  0  0
   -4.8144   62.4328   26.9020 C   0  0  0  0  0  0  0  0  0  0  0  0
   -4.9303   62.2028   25.5305 C   0  0  0  0  0  0  0  0  0  0  0  0
   -5.0981   63.2849   24.6677 C   0  0  0  0  0  0  0  0  0  0  0  0
   -5.1408   64.5488   25.1634 N   0  0  0  0  0  0  0  0  0  0  0  0
   -5.0337   64.8015   26.4954 C   0  0  0  0  0  0  0  0  0  0  0  0
   -4.1039   63.0565   29.6401 N   0  0  0  0  0  0  0  0  0  0  0  0
  1  2  1  0
  2  3  2  0
  3  4  1  0
  4  5  2  0
  5  6  1  0
  6  7  1  0
  7  8  2  0
  7  9  1  0
  9 10  2  0
 10 11  1  0
 11 12  2  0
 12 13  1  0
 13 14  2  0
  5 15  1  0
 15 16  2  0
 16 17  1  0
 17 18  1  0
 18 19  2  0
 19 20  1  0
 20 21  2  0
 21 22  1  0
 22 23  1  0
 23 24  2  0
 24 25  1  0
 25 26  2  0
 26 27  1  0
 27 28  2  0
 22 29  2  0
 16  2  1  0
 29 18  1  0
 14  9  1  0
 28 23  1  0
M  END
$$$$
6HD6_FYH
     RDKit          3D

 27 29  0  0  0  0  0  0  0  0999 V2000
   -5.9520   60.3263   30.4394 O   0  0  0  0  0  0  0  0  0  0  0  0
   -5.0143   60.8069   31.1334 C   0  0  0  0  0  0  0  0  0  0  0  0
   -5.3097   61.7688   32.1604 N   0  0  0  0  0  0  0  0  0  0  0  0
   -6.5033   62.5711   32.1840 C   0  0  0  0  0  0  0  0  0  0  0  0
   -7.0281   62.9902   33.4150 C   0  0  0  0  0  0  0  0  0  0  0  0
   -8.1751   63.7881   33.4645 C   0  0  0  0  0  0  0  0  0  0  0  0
   -8.8098   64.1937   32.2750 C   0  0  0  0  0  0  0  0  0  0  0  0
   -9.9641   64.9935   32.2641 O   0  0  0  0  0  0  0  0  0  0  0  0
  -10.6347   65.4881   33.4212 C   0  0  0  0  0  0  0  0  0  0  0  0
  -11.7278   66.2323   33.0219 F   0  0  0  0  0  0  0  0  0  0  0  0
   -9.7865   66.2994   34.1536 F   0  0  0  0  0  0  0  0  0  0  0  0
  -11.0738   64.4357   34.2043 F   0  0  0  0  0  0  0  0  0  0  0  0
   -8.2730   63.7917   31.0467 C   0  0  0  0  0  0  0  0  0  0  0  0
   -7.1268   62.9932   30.9969 C   0  0  0  0  0  0  0  0  0  0  0  0
   -3.6262   60.3327   30.9127 C   0  0  0  0  0  0  0  0  0  0  0  0
   -2.5261   61.0834   31.3654 C   0  0  0  0  0  0  0  0  0  0  0  0
   -1.2227   60.6292   31.1503 C   0  0  0  0  0  0  0  0  0  0  0  0
   -0.9989   59.4271   30.4773 C   0  0  0  0  0  0  0  0  0  0  0  0
   -2.0815   58.6704   30.0049 C   0  0  0  0  0  0  0  0  0  0  0  0
   -1.8456   57.3579   29.2936 C   0  0  0  0  0  0  0  0  0  0  0  0
   -2.1254   56.1959   30.1693 N   0  0  0  0  0  4  0  0  0  0  0  0
   -1.1340   56.0944   31.2635 C   0  0  0  0  0  0  0  0  0  0  0  0
   -1.3670   54.8167   32.0832 C   0  0  0  0  0  0  0  0  0  0  0  0
   -1.2954   53.6710   31.2578 O   0  0  0  0  0  0  0  0  0  0  0  0
   -2.3110   53.7287   30.2762 C   0  0  0  0  0  0  0  0  0  0  0  0
   -2.1200   54.9530   29.3693 C   0  0  0  0  0  0  0  0  0  0  0  0
   -3.3910   59.1272   30.2255 C   0  0  0  0  0  0  0  0  0  0  0  0
  1  2  2  0
  2  3  1  0
  3  4  1  0
  4  5  2  0
  5  6  1  0
  6  7  2  0
  7  8  1  0
  8  9  1  0
  9 10  1  0
  9 11  1  0
  9 12  1  0
  7 13  1  0
 13 14  2  0
  2 15  1  0
 15 16  2  0
 16 17  1  0
 17 18  2  0
 18 19  1  0
 19 20  1  0
 20 21  1  0
 21 22  1  0
 22 23  1  0
 23 24  1  0
 24 25  1  0
 25 26  1  0
 19 27  2  0
 14  4  1  0
 27 15  1  0
 26 21  1  0
M  CHG  1  21   1
M  END
$$$$
6HD4_FYW
     RDKit          3D

 32 35  0  0  0  0  0  0  0  0999 V2000
   -4.9753   62.6243   30.2332 O   0  0  0  0  0  0  0  0  0  0  0  0
   -4.4024   62.9728   31.3016 C   0  0  0  0  0  0  0  0  0  0  0  0
   -3.2776   62.2189   31.7932 N   0  0  0  0  0  0  0  0  0  0  0  0
   -2.8022   61.0040   31.1889 C   0  0  0  0  0  0  0  0  0  0  0  0
   -1.4248   60.7458   31.1581 C   0  0  0  0  0  0  0  0  0  0  0  0
   -0.9381   59.5614   30.5982 C   0  0  0  0  0  0  0  0  0  0  0  0
   -1.8175   58.6062   30.0757 C   0  0  0  0  0  0  0  0  0  0  0  0
   -1.2730   57.4355   29.5236 O   0  0  0  0  0  0  0  0  0  0  0  0
   -2.0249   56.3666   28.9530 C   0  0  0  0  0  0  0  0  0  0  0  0
   -1.1525   55.3918   28.5094 F   0  0  0  0  0  0  0  0  0  0  0  0
   -2.8648   55.8140   29.9034 F   0  0  0  0  0  0  0  0  0  0  0  0
   -2.7654   56.8250   27.8782 F   0  0  0  0  0  0  0  0  0  0  0  0
   -3.2032   58.8512   30.1280 C   0  0  0  0  0  0  0  0  0  0  0  0
   -3.6901   60.0370   30.6871 C   0  0  0  0  0  0  0  0  0  0  0  0
   -4.9028   64.1659   32.0258 C   0  0  0  0  0  0  0  0  0  0  0  0
   -6.2537   64.5273   31.9312 C   0  0  0  0  0  0  0  0  0  0  0  0
   -6.7224   65.6132   32.5970 N   0  0  0  0  0  0  0  0  0  0  0  0
   -5.9212   66.4033   33.3609 C   0  0  0  0  0  0  0  0  0  0  0  0
   -6.5095   67.4970   34.0815 N   0  0  0  0  0  0  0  0  0  0  0  0
   -7.4393   68.4277   33.4645 C   0  0  0  0  0  0  0  0  0  0  0  0
   -8.1629   69.1142   34.6169 C   0  0  0  0  0  0  0  0  0  0  0  0
   -7.3250   68.8274   35.8630 C   0  0  0  0  0  0  0  0  0  0  0  0
   -8.1493   68.6304   36.9810 O   0  0  0  0  0  0  0  0  0  0  0  0
   -6.5236   67.5712   35.5331 C   0  0  0  0  0  0  0  0  0  0  0  0
   -4.5415   66.1133   33.4516 C   0  0  0  0  0  0  0  0  0  0  0  0
   -3.5945   67.0003   34.1678 C   0  0  0  0  0  0  0  0  0  0  0  0
   -2.6778   66.4800   35.0910 C   0  0  0  0  0  0  0  0  0  0  0  0
   -1.8158   67.3081   35.7357 N   0  0  0  0  0  0  0  0  0  0  0  0
   -1.8192   68.6445   35.4949 C   0  0  0  0  0  0  0  0  0  0  0  0
   -2.6891   69.1720   34.5956 N   0  0  0  0  0  0  0  0  0  0  0  0
   -3.5696   68.3816   33.9292 C   0  0  0  0  0  0  0  0  0  0  0  0
   -4.0479   64.9809   32.7841 C   0  0  0  0  0  0  0  0  0  0  0  0
  1  2  2  0
  2  3  1  0
  3  4  1  0
  4  5  2  0
  5  6  1  0
  6  7  2  0
  7  8  1  0
  8  9  1  0
  9 10  1  0
  9 11  1  0
  9 12  1  0
  7 13  1  0
 13 14  2  0
  2 15  1  0
 15 16  2  0
 16 17  1  0
 17 18  2  0
 18 19  1  0
 19 20  1  0
 20 21  1  0
 21 22  1  0
 22 23  1  0
 22 24  1  0
 18 25  1  0
 25 26  1  0
 26 27  2  0
 27 28  1  0
 28 29  2  0
 29 30  1  0
 30 31  2  0
 25 32  2  0
 14  4  1  0
 32 15  1  0
 24 19  1  0
 31 26  1  0
M  END
$$$$
2QOH_P3Y
     RDKit          3D

 28 31  0  0  0  0  0  0  0  0999 V2000
   -2.1310    5.3248   -2.7002 C   0  0  0  0  0  0  0  0  0  0  0  0
   -3.1343    4.4459   -3.1974 O   0  0  0  0  0  0  0  0  0  0  0  0
   -4.5170    4.6720   -3.0950 C   0  0  0  0  0  0  0  0  0  0  0  0
   -5.0334    5.8553   -2.5289 C   0  0  0  0  0  0  0  0  0  0  0  0
   -6.4116    6.0773   -2.4882 C   0  0  0  0  0  0  0  0  0  0  0  0
   -7.2894    5.1289   -3.0127 C   0  0  0  0  0  0  0  0  0  0  0  0
   -6.7932    3.9484   -3.5681 C   0  0  0  0  0  0  0  0  0  0  0  0
   -5.4110    3.7010   -3.5962 C   0  0  0  0  0  0  0  0  0  0  0  0
   -4.9187    2.4343   -4.1763 C   0  0  0  0  0  0  0  0  0  0  0  0
   -5.3214    1.8686   -5.3861 C   0  0  0  0  0  0  0  0  0  0  0  0
   -4.6793    0.6971   -5.5998 N   0  0  0  0  0  0  0  0  0  0  0  0
   -3.8899    0.5174   -4.5294 C   0  0  0  0  0  0  0  0  0  0  0  0
   -3.0874   -0.5502   -4.3025 N   0  0  0  0  0  0  0  0  0  0  0  0
   -2.3679   -0.6100   -3.1427 C   0  0  0  0  0  0  0  0  0  0  0  0
   -2.4694    0.4206   -2.1684 C   0  0  0  0  0  0  0  0  0  0  0  0
   -1.6966    0.3449   -0.9029 C   0  0  0  0  0  0  0  0  0  0  0  0
   -2.2681    0.7474    0.3155 C   0  0  0  0  0  0  0  0  0  0  0  0
   -1.5479    0.6840    1.4657 N   0  0  0  0  0  0  0  0  0  0  0  0
   -0.2691    0.2269    1.4881 C   0  0  0  0  0  0  0  0  0  0  0  0
    0.3461   -0.2058    0.3060 C   0  0  0  0  0  0  0  0  0  0  0  0
    1.7461   -0.6809    0.3076 C   0  0  0  0  0  0  0  0  0  0  0  0
    2.5150   -0.3058   -0.6195 O   0  0  0  0  0  0  0  0  0  0  0  0
    2.2465   -1.5646    1.3312 N   0  0  0  0  0  0  0  0  0  0  0  0
    3.6822   -1.5745    1.6227 C   0  0  0  0  0  0  0  0  0  0  0  0
    1.3615   -2.5534    1.9567 C   0  0  0  0  0  0  0  0  0  0  0  0
   -0.3733   -0.1267   -0.8947 C   0  0  0  0  0  0  0  0  0  0  0  0
   -3.3236    1.5178   -2.4236 C   0  0  0  0  0  0  0  0  0  0  0  0
   -4.0087    1.5425   -3.6357 C   0  0  0  0  0  0  0  0  0  0  0  0
  1  2  1  0
  2  3  1  0
  3  4  2  0
  4  5  1  0
  5  6  2  0
  6  7  1  0
  7  8  2  0
  8  9  1  0
  9 10  2  0
 10 11  1  0
 11 12  1  0
 12 13  2  0
 13 14  1  0
 14 15  2  0
 15 16  1  0
 16 17  2  0
 17 18  1  0
 18 19  2  0
 19 20  1  0
 20 21  1  0
 21 22  2  0
 21 23  1  0
 23 24  1  0
 23 25  1  0
 20 26  2  0
 15 27  1  0
 27 28  2  0
  8  3  1  0
 28  9  1  0
 28 12  1  0
 26 16  1  0
M  END
$$$$
3KF4_B90
     RDKit          3D

 32 36  0  0  0  0  0  0  0  0999 V2000
   -5.1966   60.2704   30.7349 C   0  0  0  0  0  0  0  0  0  0  0  0
   -3.7156   60.0031   30.6821 C   0  0  0  0  0  0  0  0  0  0  0  0
   -2.8189   60.9757   31.1997 C   0  0  0  0  0  0  0  0  0  0  0  0
   -1.4302   60.7702   31.1635 C   0  0  0  0  0  0  0  0  0  0  0  0
   -0.9664   59.5902   30.5969 C   0  0  0  0  0  0  0  0  0  0  0  0
    0.3060   59.2101   30.4080 N   0  0  0  0  0  0  0  0  0  0  0  0
    0.3057   58.0425   29.7770 N   0  0  0  0  0  0  0  0  0  0  0  0
   -0.9794   57.6714   29.5647 C   0  0  0  0  0  0  0  0  0  0  0  0
   -1.8116   58.6443   30.0903 C   0  0  0  0  0  0  0  0  0  0  0  0
   -3.2076   58.7979   30.1164 C   0  0  0  0  0  0  0  0  0  0  0  0
   -4.1177   57.7778   29.5468 C   0  0  0  0  0  0  0  0  0  0  0  0
   -3.9837   56.4737   29.8166 C   0  0  0  0  0  0  0  0  0  0  0  0
   -4.8716   55.4749   29.2870 N   0  0  0  0  0  0  0  0  0  0  0  0
   -4.6007   54.1475   29.1967 C   0  0  0  0  0  0  0  0  0  0  0  0
   -5.6346   53.4137   28.7020 N   0  0  0  0  0  0  0  0  0  0  0  0
   -6.5844   54.3427   28.4893 C   0  0  0  0  0  0  0  0  0  0  0  0
   -7.8859   54.1793   28.0249 C   0  0  0  0  0  0  0  0  0  0  0  0
   -8.3972   52.8812   27.6812 N   0  0  0  0  0  0  0  0  0  0  0  0
   -9.6291   52.6668   26.9720 C   0  0  0  0  0  0  0  0  0  0  0  0
  -10.0457   53.5354   25.9477 C   0  0  0  0  0  0  0  0  0  0  0  0
  -11.2360   53.2921   25.2564 C   0  0  0  0  0  0  0  0  0  0  0  0
  -12.0187   52.1736   25.5695 C   0  0  0  0  0  0  0  0  0  0  0  0
  -13.5425   51.8687   24.6683 P   0  0  0  0  0  5  0  0  0  0  0  0
  -13.1620   51.6078   22.9136 C   0  0  0  0  0  0  0  0  0  0  0  0
  -14.6448   53.3001   24.8382 C   0  0  0  0  0  0  0  0  0  0  0  0
  -14.2396   50.6417   25.2116 O   0  0  0  0  0  0  0  0  0  0  0  0
  -11.5932   51.2908   26.5712 C   0  0  0  0  0  0  0  0  0  0  0  0
  -10.4025   51.5332   27.2625 C   0  0  0  0  0  0  0  0  0  0  0  0
   -8.6769   55.2943   27.9697 N   0  0  0  0  0  0  0  0  0  0  0  0
   -8.2067   56.5268   28.3428 C   0  0  0  0  0  0  0  0  0  0  0  0
   -6.9245   56.6720   28.7921 N   0  0  0  0  0  0  0  0  0  0  0  0
   -6.1349   55.5713   28.8394 C   0  0  0  0  0  0  0  0  0  0  0  0
  1  2  1  0
  2  3  2  0
  3  4  1  0
  4  5  2  0
  5  6  1  0
  6  7  1  0
  7  8  2  0
  8  9  1  0
  9 10  2  0
 10 11  1  0
 11 12  2  0
 12 13  1  0
 13 14  1  0
 14 15  2  0
 15 16  1  0
 16 17  2  0
 17 18  1  0
 18 19  1  0
 19 20  2  0
 20 21  1  0
 21 22  2  0
 22 23  1  0
 23 24  1  0
 23 25  1  0
 23 26  2  0
 22 27  1  0
 27 28  2  0
 17 29  1  0
 29 30  2  0
 30 31  1  0
 31 32  2  0
 10  2  1  0
 32 13  1  0
  9  5  1  0
 32 16  1  0
 28 19  1  0
M  END
$$$$
3MS9_MS9
     RDKit          3D

 12 12  0  0  0  0  0  0  0  0999 V2000
   -7.2904   60.9230   30.2011 C   0  0  0  0  0  0  0  0  0  0  0  0
   -5.8700   60.8665   30.2482 O   0  0  0  0  0  0  0  0  0  0  0  0
   -5.1748   59.7744   30.7776 C   0  0  0  0  0  0  0  0  0  0  0  0
   -5.8073   58.7682   31.2026 O   0  0  0  0  0  0  0  0  0  0  0  0
   -3.6950   59.7684   30.7872 C   0  0  0  0  0  0  0  0  0  0  0  0
   -3.0256   58.5517   30.5600 C   0  0  0  0  0  0  0  0  0  0  0  0
   -1.6326   58.5080   30.4802 C   0  0  0  0  0  0  0  0  0  0  0  0
   -0.8861   59.6773   30.6267 C   0  0  0  0  0  0  0  0  0  0  0  0
    0.8639   59.6202   30.5184 Cl  0  0  0  0  0  0  0  0  0  0  0  0
   -1.5324   60.8908   30.8729 C   0  0  0  0  0  0  0  0  0  0  0  0
   -2.9320   60.9499   30.9728 C   0  0  0  0  0  0  0  0  0  0  0  0
   -3.5432   62.1994   31.3217 N   0  0  0  0  0  0  0  0  0  0  0  0
  1  2  1  0
  2  3  1  0
  3  4  2  0
  3  5  1  0
  5  6  2  0
  6  7  1  0
  7  8  2  0
  8  9  1  0
  8 10  1  0
 10 11  2  0
 11 12  1  0
 11  5  1  0
M  END
$$$$
3K5V_STJ
     RDKit          3D

 27 29  0  0  0  0  0  0  0  0999 V2000
   -5.2564   62.3476   30.8879 N   0  0  0  0  0  0  0  0  0  0  0  0
   -4.9984   60.9418   30.8352 C   0  0  0  0  0  0  0  0  0  0  0  0
   -5.9744   60.1437   30.8467 O   0  0  0  0  0  0  0  0  0  0  0  0
   -3.6159   60.4093   30.7521 C   0  0  0  0  0  0  0  0  0  0  0  0
   -2.5190   61.1635   31.2039 C   0  0  0  0  0  0  0  0  0  0  0  0
   -1.2242   60.6509   31.1130 C   0  0  0  0  0  0  0  0  0  0  0  0
   -1.0058   59.3790   30.5825 C   0  0  0  0  0  0  0  0  0  0  0  0
   -2.0858   58.5931   30.1460 C   0  0  0  0  0  0  0  0  0  0  0  0
   -1.8339   57.2412   29.5840 C   0  0  0  0  0  0  0  0  0  0  0  0
   -2.7776   56.2067   29.6951 C   0  0  0  0  0  0  0  0  0  0  0  0
   -2.4747   54.9516   29.1554 C   0  0  0  0  0  0  0  0  0  0  0  0
   -3.4371   53.8870   29.2317 N   0  0  0  0  0  0  0  0  0  0  0  0
   -3.1354   52.5085   28.9561 C   0  0  0  0  0  0  0  0  0  0  0  0
   -1.9041   51.9401   29.3251 C   0  0  0  0  0  0  0  0  0  0  0  0
   -1.6423   50.5906   29.0693 C   0  0  0  0  0  0  0  0  0  0  0  0
   -2.6163   49.7821   28.4522 C   0  0  0  0  0  0  0  0  0  0  0  0
   -2.4071   48.4226   28.1690 O   0  0  0  0  0  0  0  0  0  0  0  0
   -1.2140   47.6957   28.4547 C   0  0  0  0  0  0  0  0  0  0  0  0
   -0.9698   47.6962   29.8164 F   0  0  0  0  0  0  0  0  0  0  0  0
   -1.3724   46.3904   28.0313 F   0  0  0  0  0  0  0  0  0  0  0  0
   -0.1421   48.2553   27.7828 F   0  0  0  0  0  0  0  0  0  0  0  0
   -3.8495   50.3466   28.1074 C   0  0  0  0  0  0  0  0  0  0  0  0
   -4.1115   51.6952   28.3641 C   0  0  0  0  0  0  0  0  0  0  0  0
   -1.2840   54.7660   28.5245 N   0  0  0  0  0  0  0  0  0  0  0  0
   -0.3751   55.7690   28.4305 C   0  0  0  0  0  0  0  0  0  0  0  0
   -0.6511   56.9885   28.9589 N   0  0  0  0  0  0  0  0  0  0  0  0
   -3.3892   59.1219   30.2296 C   0  0  0  0  0  0  0  0  0  0  0  0
  1  2  1  0
  2  3  2  0
  2  4  1  0
  4  5  2  0
  5  6  1  0
  6  7  2  0
  7  8  1  0
  8  9  1  0
  9 10  2  0
 10 11  1  0
 11 12  1  0
 12 13  1  0
 13 14  2  0
 14 15  1  0
 15 16  2  0
 16 17  1  0
 17 18  1  0
 18 19  1  0
 18 20  1  0
 18 21  1  0
 16 22  1  0
 22 23  2  0
 11 24  2  0
 24 25  1  0
 25 26  2  0
  8 27  2  0
 27  4  1  0
 26  9  1  0
 23 13  1  0
M  END
$$$$
3K5V_STI
     RDKit          3D

 37 41  0  0  0  0  0  0  0  0999 V2000
  -10.0810   64.9993   32.3567 C   0  0  0  0  0  0  0  0  0  0  0  0
   -8.8197   64.1827   32.2655 C   0  0  0  0  0  0  0  0  0  0  0  0
   -8.1752   63.7925   33.4492 C   0  0  0  0  0  0  0  0  0  0  0  0
   -7.0248   63.0026   33.4041 C   0  0  0  0  0  0  0  0  0  0  0  0
   -6.5022   62.5760   32.1766 C   0  0  0  0  0  0  0  0  0  0  0  0
   -5.3103   61.7712   32.1575 N   0  0  0  0  0  0  0  0  0  0  0  0
   -5.0151   60.8065   31.1331 C   0  0  0  0  0  0  0  0  0  0  0  0
   -5.9532   60.3238   30.4409 O   0  0  0  0  0  0  0  0  0  0  0  0
   -3.6272   60.3324   30.9127 C   0  0  0  0  0  0  0  0  0  0  0  0
   -2.5268   61.0834   31.3634 C   0  0  0  0  0  0  0  0  0  0  0  0
   -1.2223   60.6308   31.1470 C   0  0  0  0  0  0  0  0  0  0  0  0
   -0.9909   59.4181   30.4800 C   0  0  0  0  0  0  0  0  0  0  0  0
    0.4244   58.9285   30.2461 C   0  0  0  0  0  0  0  0  0  0  0  0
    0.9575   58.0636   31.3280 N   0  0  0  0  0  4  0  0  0  0  0  0
    1.0580   58.7724   32.6213 C   0  0  0  0  0  0  0  0  0  0  0  0
    1.7129   57.8696   33.6791 C   0  0  0  0  0  0  0  0  0  0  0  0
    0.9567   56.6087   33.8309 N   0  0  0  0  0  4  0  0  0  0  0  0
    1.6093   55.7416   34.8256 C   0  0  0  0  0  0  0  0  0  0  0  0
    0.8433   55.9042   32.5363 C   0  0  0  0  0  0  0  0  0  0  0  0
    0.1896   56.8096   31.4801 C   0  0  0  0  0  0  0  0  0  0  0  0
   -2.0861   58.6783   30.0086 C   0  0  0  0  0  0  0  0  0  0  0  0
   -3.3910   59.1298   30.2232 C   0  0  0  0  0  0  0  0  0  0  0  0
   -7.1191   62.9986   30.9868 C   0  0  0  0  0  0  0  0  0  0  0  0
   -8.2581   63.8148   31.0207 C   0  0  0  0  0  0  0  0  0  0  0  0
   -8.8361   64.2451   29.7804 N   0  0  0  0  0  0  0  0  0  0  0  0
   -8.8966   65.6255   29.4024 C   0  0  0  0  0  0  0  0  0  0  0  0
   -9.5362   65.9846   28.2591 N   0  0  0  0  0  0  0  0  0  0  0  0
   -9.6039   67.2852   27.8770 C   0  0  0  0  0  0  0  0  0  0  0  0
   -9.0066   68.2751   28.6568 C   0  0  0  0  0  0  0  0  0  0  0  0
   -8.3299   67.8961   29.8277 C   0  0  0  0  0  0  0  0  0  0  0  0
   -7.6653   68.8890   30.7124 C   0  0  0  0  0  0  0  0  0  0  0  0
   -7.1999   70.1249   30.2250 C   0  0  0  0  0  0  0  0  0  0  0  0
   -6.5729   71.0285   31.0845 C   0  0  0  0  0  0  0  0  0  0  0  0
   -6.4058   70.6933   32.4276 C   0  0  0  0  0  0  0  0  0  0  0  0
   -6.8463   69.4939   32.8882 N   0  0  0  0  0  0  0  0  0  0  0  0
   -7.4596   68.5948   32.0732 C   0  0  0  0  0  0  0  0  0  0  0  0
   -8.2989   66.5785   30.1676 N   0  0  0  0  0  0  0  0  0  0  0  0
  1  2  1  0
  2  3  2  0
  3  4  1  0
  4  5  2  0
  5  6  1  0
  6  7  1  0
  7  8  2  0
  7  9  1  0
  9 10  2  0
 10 11  1  0
 11 12  2  0
 12 13  1  0
 13 14  1  0
 14 15  1  0
 15 16  1  0
 16 17  1  0
 17 18  1  0
 17 19  1  0
 19 20  1  0
 12 21  1  0
 21 22  2  0
  5 23  1  0
 23 24  2  0
 24 25  1  0
 25 26  1  0
 26 27  2  0
 27 28  1  0
 28 29  2  0
 29 30  1  0
 30 31  1  0
 31 32  2  0
 32 33  1  0
 33 34  2  0
 34 35  1  0
 35 36  2  0
 30 37  2  0
 24  2  1  0
 37 26  1  0
 22  9  1  0
 36 31  1  0
 20 14  1  0
M  CHG  2  14   1  17   1
M  END
$$$$
3KFA_B91
     RDKit          3D

 41 46  0  0  0  0  0  0  0  0999 V2000
  -10.9682   68.5876   30.1199 C   0  0  0  0  0  0  0  0  0  0  0  0
   -9.7883   67.6975   30.3244 C   0  0  0  0  0  0  0  0  0  0  0  0
   -9.8125   66.4478   30.9002 C   0  0  0  0  0  0  0  0  0  0  0  0
   -8.5450   65.9972   30.9584 N   0  0  0  0  0  0  0  0  0  0  0  0
   -8.0897   64.7329   31.4826 C   0  0  0  0  0  0  0  0  0  0  0  0
   -6.8976   64.1547   31.0141 C   0  0  0  0  0  0  0  0  0  0  0  0
   -6.4624   62.9126   31.4953 C   0  0  0  0  0  0  0  0  0  0  0  0
   -5.2380   62.3509   30.9909 N   0  0  0  0  0  0  0  0  0  0  0  0
   -4.9985   60.9383   30.8705 C   0  0  0  0  0  0  0  0  0  0  0  0
   -5.9757   60.1424   30.8120 O   0  0  0  0  0  0  0  0  0  0  0  0
   -3.6173   60.4076   30.7633 C   0  0  0  0  0  0  0  0  0  0  0  0
   -2.5192   61.1647   31.1995 C   0  0  0  0  0  0  0  0  0  0  0  0
   -1.2250   60.6503   31.1150 C   0  0  0  0  0  0  0  0  0  0  0  0
   -0.9940   59.3661   30.5984 C   0  0  0  0  0  0  0  0  0  0  0  0
    0.4183   58.8403   30.5834 C   0  0  0  0  0  0  0  0  0  0  0  0
   -2.0914   58.6085   30.1153 C   0  0  0  0  0  0  0  0  0  0  0  0
   -1.9403   57.2639   29.5168 C   0  0  0  0  0  0  0  0  0  0  0  0
   -1.1025   57.0294   28.4996 C   0  0  0  0  0  0  0  0  0  0  0  0
   -0.9771   55.7359   27.8848 N   0  0  0  0  0  0  0  0  0  0  0  0
   -1.5481   54.5488   28.2290 C   0  0  0  0  0  0  0  0  0  0  0  0
   -1.1824   53.5189   27.4170 N   0  0  0  0  0  0  0  0  0  0  0  0
   -0.3495   54.1089   26.5396 C   0  0  0  0  0  0  0  0  0  0  0  0
    0.3472   53.5499   25.4703 C   0  0  0  0  0  0  0  0  0  0  0  0
    0.2030   52.1493   25.1478 N   0  0  0  0  0  0  0  0  0  0  0  0
    1.0219   51.3019   24.2618 C   0  0  0  0  0  0  0  0  0  0  0  0
    1.4128   51.9136   22.9273 C   0  0  0  0  0  0  0  0  0  0  0  0
    2.4627   51.7220   24.0223 C   0  0  0  0  0  0  0  0  0  0  0  0
    1.1301   54.3957   24.7333 N   0  0  0  0  0  0  0  0  0  0  0  0
    1.2415   55.7287   25.0357 C   0  0  0  0  0  0  0  0  0  0  0  0
    0.5572   56.2586   26.0926 N   0  0  0  0  0  0  0  0  0  0  0  0
   -0.2263   55.4269   26.8205 C   0  0  0  0  0  0  0  0  0  0  0  0
   -3.3914   59.1253   30.2350 C   0  0  0  0  0  0  0  0  0  0  0  0
   -7.2062   62.2628   32.4942 C   0  0  0  0  0  0  0  0  0  0  0  0
   -8.3843   62.8373   32.9981 C   0  0  0  0  0  0  0  0  0  0  0  0
   -9.2046   62.1092   34.0346 C   0  0  0  0  0  0  0  0  0  0  0  0
  -10.1090   61.2801   33.3978 F   0  0  0  0  0  0  0  0  0  0  0  0
   -8.3925   61.3449   34.8547 F   0  0  0  0  0  0  0  0  0  0  0  0
   -9.8975   63.0059   34.8296 F   0  0  0  0  0  0  0  0  0  0  0  0
   -8.8337   64.0572   32.4658 C   0  0  0  0  0  0  0  0  0  0  0  0
   -7.7885   66.9857   30.4311 C   0  0  0  0  0  0  0  0  0  0  0  0
   -8.5194   68.0512   30.0400 N   0  0  0  0  0  0  0  0  0  0  0  0
  1  2  1  0
  2  3  2  0
  3  4  1  0
  4  5  1  0
  5  6  2  0
  6  7  1  0
  7  8  1  0
  8  9  1  0
  9 10  2  0
  9 11  1  0
 11 12  2  0
 12 13  1  0
 13 14  2  0
 14 15  1  0
 14 16  1  0
 16 17  1  0
 17 18  2  0
 18 19  1  0
 19 20  1  0
 20 21  2  0
 21 22  1  0
 22 23  2  0
 23 24  1  0
 24 25  1  0
 25 26  1  0
 26 27  1  0
 23 28  1  0
 28 29  2  0
 29 30  1  0
 30 31  2  0
 16 32  2  0
  7 33  2  0
 33 34  1  0
 34 35  1  0
 35 36  1  0
 35 37  1  0
 35 38  1  0
 34 39  2  0
  4 40  1  0
 40 41  2  0
 41  2  1  0
 39  5  1  0
 32 11  1  0
 31 19  1  0
 31 22  1  0
 27 25  1  0
M  END
$$$$
