1FPU_PRC
     RDKit          3D

 29 32  0  0  0  0  0  0  0  0999 V2000
   -1.1260    3.9103   -2.8188 C   0  0  0  0  0  0  0  0  0  0  0  0
   -0.8192    2.5100   -2.3624 C   0  0  0  0  0  0  0  0  0  0  0  0
    0.3307    2.2678   -1.5934 C   0  0  0  0  0  0  0  0  0  0  0  0
    0.6274    0.9791   -1.1461 C   0  0  0  0  0  0  0  0  0  0  0  0
   -0.2134   -0.0956   -1.4728 C   0  0  0  0  0  0  0  0  0  0  0  0
    0.0770   -1.4322   -1.0305 N   0  0  0  0  0  0  0  0  0  0  0  0
    0.7704   -1.7400    0.1884 C   0  0  0  0  0  0  0  0  0  0  0  0
    1.5622   -2.7205    0.2055 O   0  0  0  0  0  0  0  0  0  0  0  0
    0.5421   -0.9675    1.4330 C   0  0  0  0  0  0  0  0  0  0  0  0
   -0.6790   -0.3141    1.6697 C   0  0  0  0  0  0  0  0  0  0  0  0
   -0.8750    0.3987    2.8533 C   0  0  0  0  0  0  0  0  0  0  0  0
    0.1490    0.4474    3.7996 C   0  0  0  0  0  0  0  0  0  0  0  0
    1.3213   -0.1995    3.5673 N   0  0  0  0  0  0  0  0  0  0  0  0
    1.5373   -0.9011    2.4224 C   0  0  0  0  0  0  0  0  0  0  0  0
   -1.3402    0.1348   -2.2700 C   0  0  0  0  0  0  0  0  0  0  0  0
   -1.6697    1.4331   -2.6970 C   0  0  0  0  0  0  0  0  0  0  0  0
   -2.8577    1.6520   -3.4785 N   0  0  0  0  0  0  0  0  0  0  0  0
   -4.1285    1.0814   -3.1368 C   0  0  0  0  0  0  0  0  0  0  0  0
   -5.1848    1.2302   -3.9783 N   0  0  0  0  0  0  0  0  0  0  0  0
   -6.4013    0.7125   -3.6690 C   0  0  0  0  0  0  0  0  0  0  0  0
   -6.5840    0.0219   -2.4706 C   0  0  0  0  0  0  0  0  0  0  0  0
   -5.4926   -0.1142   -1.5979 C   0  0  0  0  0  0  0  0  0  0  0  0
   -5.5988   -0.8382   -0.3054 C   0  0  0  0  0  0  0  0  0  0  0  0
   -6.8139   -0.9270    0.3981 C   0  0  0  0  0  0  0  0  0  0  0  0
   -6.8704   -1.6011    1.6193 C   0  0  0  0  0  0  0  0  0  0  0  0
   -5.7118   -2.1798    2.1368 C   0  0  0  0  0  0  0  0  0  0  0  0
   -4.5408   -2.0828    1.4552 N   0  0  0  0  0  0  0  0  0  0  0  0
   -4.4574   -1.4321    0.2644 C   0  0  0  0  0  0  0  0  0  0  0  0
   -4.2956    0.4209   -1.9595 N   0  0  0  0  0  0  0  0  0  0  0  0
  1  2  1  0
  2  3  2  0
  3  4  1  0
  4  5  2  0
  5  6  1  0
  6  7  1  0
  7  8  2  0
  7  9  1  0
  9 10  2  0
 10 11  1  0
 11 12  2  0
 12 13  1  0
 13 14  2  0
  5 15  1  0
 15 16  2  0
 16 17  1  0
 17 18  1  0
 18 19  2  0
 19 20  1  0
 20 21  2  0
 21 22  1  0
 22 23  1  0
 23 24  2  0
 24 25  1  0
 25 26  2  0
 26 27  1  0
 27 28  2  0
 22 29  2  0
 16  2  1  0
 29 18  1  0
 14  9  1  0
 28 23  1  0
M  END
$$$$
6HD6_FYH
     RDKit          3D

 27 29  0  0  0  0  0  0  0  0999 V2000
   19.5476   42.4075   56.0231 O   0  0  0  0  0  0  0  0  0  0  0  0
   20.6400   42.9918   55.7844 C   0  0  0  0  0  0  0  0  0  0  0  0
   21.4599   42.5498   54.6892 N   0  0  0  0  0  0  0  0  0  0  0  0
   20.9585   41.8067   53.5645 C   0  0  0  0  0  0  0  0  0  0  0  0
   19.6503   41.9951   53.0851 C   0  0  0  0  0  0  0  0  0  0  0  0
   19.1925   41.2781   51.9753 C   0  0  0  0  0  0  0  0  0  0  0  0
   20.0418   40.3681   51.3169 C   0  0  0  0  0  0  0  0  0  0  0  0
   19.6348   39.6203   50.2002 O   0  0  0  0  0  0  0  0  0  0  0  0
   18.3432   39.6747   49.5984 C   0  0  0  0  0  0  0  0  0  0  0  0
   17.3750   39.2987   50.5124 F   0  0  0  0  0  0  0  0  0  0  0  0
   18.0856   40.9531   49.1370 F   0  0  0  0  0  0  0  0  0  0  0  0
   18.3097   38.8004   48.5295 F   0  0  0  0  0  0  0  0  0  0  0  0
   21.3496   40.1981   51.7850 C   0  0  0  0  0  0  0  0  0  0  0  0
   21.8077   40.9153   52.8936 C   0  0  0  0  0  0  0  0  0  0  0  0
   21.0875   44.0928   56.6716 C   0  0  0  0  0  0  0  0  0  0  0  0
   20.5298   44.2387   57.9542 C   0  0  0  0  0  0  0  0  0  0  0  0
   20.9479   45.2727   58.7949 C   0  0  0  0  0  0  0  0  0  0  0  0
   21.9215   46.1761   58.3664 C   0  0  0  0  0  0  0  0  0  0  0  0
   22.4830   46.0564   57.0865 C   0  0  0  0  0  0  0  0  0  0  0  0
   23.5390   47.0379   56.6282 C   0  0  0  0  0  0  0  0  0  0  0  0
   24.8518   46.7853   57.2793 N   0  0  0  0  0  4  0  0  0  0  0  0
   25.5333   45.5770   56.7435 C   0  0  0  0  0  0  0  0  0  0  0  0
   26.4856   45.8991   55.5729 C   0  0  0  0  0  0  0  0  0  0  0  0
   26.0701   47.0647   54.8963 O   0  0  0  0  0  0  0  0  0  0  0  0
   26.2336   48.1975   55.7316 C   0  0  0  0  0  0  0  0  0  0  0  0
   25.7357   47.9671   57.1795 C   0  0  0  0  0  0  0  0  0  0  0  0
   22.0584   45.0166   56.2418 C   0  0  0  0  0  0  0  0  0  0  0  0
  1  2  2  0
  2  3  1  0
  3  4  1  0
  4  5  2  0
  5  6  1  0
  6  7  2  0
  7  8  1  0
  8  9  1  0
  9 10  1  0
  9 11  1  0
  9 12  1  0
  7 13  1  0
 13 14  2  0
  2 15  1  0
 15 16  2  0
 16 17  1  0
 17 18  2  0
 18 19  1  0
 19 20  1  0
 20 21  1  0
 21 22  1  0
 22 23  1  0
 23 24  1  0
 24 25  1  0
 25 26  1  0
 19 27  2  0
 14  4  1  0
 27 15  1  0
 26 21  1  0
M  CHG  1  21   1
M  END
$$$$
6HD4_FYW
     RDKit          3D

 32 35  0  0  0  0  0  0  0  0999 V2000
    0.2871   -1.2211    4.3405 O   0  0  0  0  0  0  0  0  0  0  0  0
   -0.0872   -1.0979    3.1433 C   0  0  0  0  0  0  0  0  0  0  0  0
    0.6853   -1.7307    2.1091 N   0  0  0  0  0  0  0  0  0  0  0  0
    0.8318   -1.2163    0.7735 C   0  0  0  0  0  0  0  0  0  0  0  0
    1.0548   -2.1053   -0.2863 C   0  0  0  0  0  0  0  0  0  0  0  0
    1.1680   -1.6308   -1.5960 C   0  0  0  0  0  0  0  0  0  0  0  0
    1.0734   -0.2614   -1.8687 C   0  0  0  0  0  0  0  0  0  0  0  0
    1.1783    0.1575   -3.2049 O   0  0  0  0  0  0  0  0  0  0  0  0
    1.0808    1.5071   -3.6547 C   0  0  0  0  0  0  0  0  0  0  0  0
   -0.1530    2.0343   -3.3167 F   0  0  0  0  0  0  0  0  0  0  0  0
    1.2143    1.5321   -5.0293 F   0  0  0  0  0  0  0  0  0  0  0  0
    2.0896    2.2703   -3.0948 F   0  0  0  0  0  0  0  0  0  0  0  0
    0.8797    0.6371   -0.8019 C   0  0  0  0  0  0  0  0  0  0  0  0
    0.7697    0.1628    0.5082 C   0  0  0  0  0  0  0  0  0  0  0  0
   -1.3285   -0.3418    2.8461 C   0  0  0  0  0  0  0  0  0  0  0  0
   -1.7545    0.6870    3.6958 C   0  0  0  0  0  0  0  0  0  0  0  0
   -2.8671    1.4054    3.3966 N   0  0  0  0  0  0  0  0  0  0  0  0
   -3.6181    1.1610    2.2885 C   0  0  0  0  0  0  0  0  0  0  0  0
   -4.7351    2.0167    2.0052 N   0  0  0  0  0  0  0  0  0  0  0  0
   -5.7246    2.3653    3.0103 C   0  0  0  0  0  0  0  0  0  0  0  0
   -6.4365    3.6026    2.4767 C   0  0  0  0  0  0  0  0  0  0  0  0
   -6.0822    3.6762    0.9890 C   0  0  0  0  0  0  0  0  0  0  0  0
   -5.9027    5.0030    0.5696 O   0  0  0  0  0  0  0  0  0  0  0  0
   -4.7887    2.8847    0.8404 C   0  0  0  0  0  0  0  0  0  0  0  0
   -3.2595    0.1018    1.4250 C   0  0  0  0  0  0  0  0  0  0  0  0
   -4.0734   -0.2686    0.2439 C   0  0  0  0  0  0  0  0  0  0  0  0
   -5.4566   -0.4704    0.3462 C   0  0  0  0  0  0  0  0  0  0  0  0
   -6.1774   -0.8128   -0.7526 N   0  0  0  0  0  0  0  0  0  0  0  0
   -5.5774   -0.9698   -1.9607 C   0  0  0  0  0  0  0  0  0  0  0  0
   -4.2371   -0.7900   -2.0838 N   0  0  0  0  0  0  0  0  0  0  0  0
   -3.4768   -0.4487   -1.0117 C   0  0  0  0  0  0  0  0  0  0  0  0
   -2.1116   -0.6461    1.7237 C   0  0  0  0  0  0  0  0  0  0  0  0
  1  2  2  0
  2  3  1  0
  3  4  1  0
  4  5  2  0
  5  6  1  0
  6  7  2  0
  7  8  1  0
  8  9  1  0
  9 10  1  0
  9 11  1  0
  9 12  1  0
  7 13  1  0
 13 14  2  0
  2 15  1  0
 15 16  2  0
 16 17  1  0
 17 18  2  0
 18 19  1  0
 19 20  1  0
 20 21  1  0
 21 22  1  0
 22 23  1  0
 22 24  1  0
 18 25  1  0
 25 26  1  0
 26 27  2  0
 27 28  1  0
 28 29  2  0
 29 30  1  0
 30 31  2  0
 25 32  2  0
 14  4  1  0
 32 15  1  0
 24 19  1  0
 31 26  1  0
M  END
$$$$
2QOH_P3Y
     RDKit          3D

 28 31  0  0  0  0  0  0  0  0999 V2000
   17.8809   38.2737   50.1672 C   0  0  0  0  0  0  0  0  0  0  0  0
   17.9256   39.6863   50.0005 O   0  0  0  0  0  0  0  0  0  0  0  0
   18.5624   40.5184   50.9250 C   0  0  0  0  0  0  0  0  0  0  0  0
   17.7735   41.3362   51.7435 C   0  0  0  0  0  0  0  0  0  0  0  0
   18.3665   42.1553   52.7063 C   0  0  0  0  0  0  0  0  0  0  0  0
   19.7545   42.1722   52.8497 C   0  0  0  0  0  0  0  0  0  0  0  0
   20.5539   41.3783   52.0236 C   0  0  0  0  0  0  0  0  0  0  0  0
   19.9705   40.5478   51.0508 C   0  0  0  0  0  0  0  0  0  0  0  0
   20.8396   39.7769   50.1363 C   0  0  0  0  0  0  0  0  0  0  0  0
   20.7055   39.6735   48.7509 C   0  0  0  0  0  0  0  0  0  0  0  0
   21.6911   38.9043   48.2340 N   0  0  0  0  0  0  0  0  0  0  0  0
   22.4391   38.5243   49.2812 C   0  0  0  0  0  0  0  0  0  0  0  0
   23.5290   37.7213   49.2311 N   0  0  0  0  0  0  0  0  0  0  0  0
   24.1740   37.3986   50.3915 C   0  0  0  0  0  0  0  0  0  0  0  0
   23.7092   37.8866   51.6436 C   0  0  0  0  0  0  0  0  0  0  0  0
   24.4055   37.5247   52.9041 C   0  0  0  0  0  0  0  0  0  0  0  0
   24.5720   38.4695   53.9298 C   0  0  0  0  0  0  0  0  0  0  0  0
   25.2052   38.1275   55.0817 N   0  0  0  0  0  0  0  0  0  0  0  0
   25.7020   36.8802   55.2858 C   0  0  0  0  0  0  0  0  0  0  0  0
   25.5781   35.8981   54.2921 C   0  0  0  0  0  0  0  0  0  0  0  0
   26.0936   34.5253   54.5065 C   0  0  0  0  0  0  0  0  0  0  0  0
   25.4920   33.5551   53.9696 O   0  0  0  0  0  0  0  0  0  0  0  0
   27.2521   34.2693   55.3237 N   0  0  0  0  0  0  0  0  0  0  0  0
   28.4070   35.1706   55.3168 C   0  0  0  0  0  0  0  0  0  0  0  0
   27.2996   33.0534   56.1360 C   0  0  0  0  0  0  0  0  0  0  0  0
   24.9117   36.2293   53.1024 C   0  0  0  0  0  0  0  0  0  0  0  0
   22.5676   38.7202   51.6687 C   0  0  0  0  0  0  0  0  0  0  0  0
   21.9607   39.0310   50.4549 C   0  0  0  0  0  0  0  0  0  0  0  0
  1  2  1  0
  2  3  1  0
  3  4  2  0
  4  5  1  0
  5  6  2  0
  6  7  1  0
  7  8  2  0
  8  9  1  0
  9 10  2  0
 10 11  1  0
 11 12  1  0
 12 13  2  0
 13 14  1  0
 14 15  2  0
 15 16  1  0
 16 17  2  0
 17 18  1  0
 18 19  2  0
 19 20  1  0
 20 21  1  0
 21 22  2  0
 21 23  1  0
 23 24  1  0
 23 25  1  0
 20 26  2  0
 15 27  1  0
 27 28  2  0
  8  3  1  0
 28  9  1  0
 28 12  1  0
 26 16  1  0
M  END
$$$$
3KF4_B90
     RDKit          3D

 32 36  0  0  0  0  0  0  0  0999 V2000
   17.1240   50.3595   57.0546 C   0  0  0  0  0  0  0  0  0  0  0  0
   18.2273   50.7917   57.9838 C   0  0  0  0  0  0  0  0  0  0  0  0
   18.0412   51.9490   58.7863 C   0  0  0  0  0  0  0  0  0  0  0  0
   19.0469   52.3915   59.6608 C   0  0  0  0  0  0  0  0  0  0  0  0
   20.2296   51.6649   59.7054 C   0  0  0  0  0  0  0  0  0  0  0  0
   21.3344   51.9304   60.4182 N   0  0  0  0  0  0  0  0  0  0  0  0
   22.2539   51.0204   60.1213 N   0  0  0  0  0  0  0  0  0  0  0  0
   21.7293   50.1630   59.2134 C   0  0  0  0  0  0  0  0  0  0  0  0
   20.4297   50.5519   58.9394 C   0  0  0  0  0  0  0  0  0  0  0  0
   19.4491   50.0625   58.0610 C   0  0  0  0  0  0  0  0  0  0  0  0
   19.6804   48.8671   57.2178 C   0  0  0  0  0  0  0  0  0  0  0  0
   20.1893   47.7330   57.7144 C   0  0  0  0  0  0  0  0  0  0  0  0
   20.4005   46.5587   56.9128 N   0  0  0  0  0  0  0  0  0  0  0  0
   21.2303   45.5303   57.2250 C   0  0  0  0  0  0  0  0  0  0  0  0
   21.2074   44.5176   56.3161 N   0  0  0  0  0  0  0  0  0  0  0  0
   20.3124   44.9509   55.4096 C   0  0  0  0  0  0  0  0  0  0  0  0
   19.8346   44.3104   54.2707 C   0  0  0  0  0  0  0  0  0  0  0  0
   20.3567   43.0372   53.8576 N   0  0  0  0  0  0  0  0  0  0  0  0
   19.7459   42.2067   52.8559 C   0  0  0  0  0  0  0  0  0  0  0  0
   18.3480   42.1100   52.7369 C   0  0  0  0  0  0  0  0  0  0  0  0
   17.7770   41.2765   51.7704 C   0  0  0  0  0  0  0  0  0  0  0  0
   18.5941   40.5203   50.9193 C   0  0  0  0  0  0  0  0  0  0  0  0
   17.8715   39.4409   49.6785 P   0  0  0  0  0  5  0  0  0  0  0  0
   18.3323   37.7224   50.0335 C   0  0  0  0  0  0  0  0  0  0  0  0
   18.4915   39.9029   48.0369 C   0  0  0  0  0  0  0  0  0  0  0  0
   16.3642   39.5615   49.6886 O   0  0  0  0  0  0  0  0  0  0  0  0
   19.9863   40.5940   51.0530 C   0  0  0  0  0  0  0  0  0  0  0  0
   20.5577   41.4263   52.0196 C   0  0  0  0  0  0  0  0  0  0  0  0
   18.8787   44.9606   53.5392 N   0  0  0  0  0  0  0  0  0  0  0  0
   18.3884   46.1819   53.9241 C   0  0  0  0  0  0  0  0  0  0  0  0
   18.8572   46.7917   55.0534 N   0  0  0  0  0  0  0  0  0  0  0  0
   19.8264   46.1644   55.7636 C   0  0  0  0  0  0  0  0  0  0  0  0
  1  2  1  0
  2  3  2  0
  3  4  1  0
  4  5  2  0
  5  6  1  0
  6  7  1  0
  7  8  2  0
  8  9  1  0
  9 10  2  0
 10 11  1  0
 11 12  2  0
 12 13  1  0
 13 14  1  0
 14 15  2  0
 15 16  1  0
 16 17  2  0
 17 18  1  0
 18 19  1  0
 19 20  2  0
 20 21  1  0
 21 22  2  0
 22 23  1  0
 23 24  1  0
 23 25  1  0
 23 26  2  0
 22 27  1  0
 27 28  2  0
 17 29  1  0
 29 30  2  0
 30 31  1  0
 31 32  2  0
 10  2  1  0
 32 13  1  0
  9  5  1  0
 32 16  1  0
 28 19  1  0
M  END
$$$$
3MS9_MS9
     RDKit          3D

 12 12  0  0  0  0  0  0  0  0999 V2000
   22.0290   43.9194   51.2339 C   0  0  0  0  0  0  0  0  0  0  0  0
   22.2346   44.4725   52.5282 O   0  0  0  0  0  0  0  0  0  0  0  0
   22.1135   43.7173   53.6999 C   0  0  0  0  0  0  0  0  0  0  0  0
   21.8400   42.4876   53.6333 O   0  0  0  0  0  0  0  0  0  0  0  0
   22.3693   44.3588   55.0091 C   0  0  0  0  0  0  0  0  0  0  0  0
   23.3197   45.3942   55.0670 C   0  0  0  0  0  0  0  0  0  0  0  0
   23.6576   45.9859   56.2854 C   0  0  0  0  0  0  0  0  0  0  0  0
   23.0512   45.5544   57.4650 C   0  0  0  0  0  0  0  0  0  0  0  0
   23.4836   46.2950   58.9954 Cl  0  0  0  0  0  0  0  0  0  0  0  0
   22.0900   44.5419   57.4249 C   0  0  0  0  0  0  0  0  0  0  0  0
   21.7258   43.9470   56.2060 C   0  0  0  0  0  0  0  0  0  0  0  0
   20.6674   42.9790   56.2052 N   0  0  0  0  0  0  0  0  0  0  0  0
  1  2  1  0
  2  3  1  0
  3  4  2  0
  3  5  1  0
  5  6  2  0
  6  7  1  0
  7  8  2  0
  8  9  1  0
  8 10  1  0
 10 11  2  0
 11 12  1  0
 11  5  1  0
M  END
$$$$
3K5V_STJ
     RDKit          3D

 27 29  0  0  0  0  0  0  0  0999 V2000
   15.6186   48.0156   59.9204 N   0  0  0  0  0  0  0  0  0  0  0  0
   16.8363   48.7518   59.7758 C   0  0  0  0  0  0  0  0  0  0  0  0
   16.9837   49.8181   60.4321 O   0  0  0  0  0  0  0  0  0  0  0  0
   17.9276   48.2797   58.8886 C   0  0  0  0  0  0  0  0  0  0  0  0
   19.2468   48.7069   59.1148 C   0  0  0  0  0  0  0  0  0  0  0  0
   20.2824   48.2762   58.2848 C   0  0  0  0  0  0  0  0  0  0  0  0
   20.0182   47.4168   57.2177 C   0  0  0  0  0  0  0  0  0  0  0  0
   18.7062   46.9751   56.9663 C   0  0  0  0  0  0  0  0  0  0  0  0
   18.4013   46.0773   55.8222 C   0  0  0  0  0  0  0  0  0  0  0  0
   19.3374   45.1454   55.3444 C   0  0  0  0  0  0  0  0  0  0  0  0
   18.9851   44.3193   54.2712 C   0  0  0  0  0  0  0  0  0  0  0  0
   19.9371   43.3787   53.7474 N   0  0  0  0  0  0  0  0  0  0  0  0
   19.6013   42.3142   52.8413 C   0  0  0  0  0  0  0  0  0  0  0  0
   18.3892   41.6116   52.9535 C   0  0  0  0  0  0  0  0  0  0  0  0
   18.0948   40.5631   52.0764 C   0  0  0  0  0  0  0  0  0  0  0  0
   19.0171   40.1897   51.0799 C   0  0  0  0  0  0  0  0  0  0  0  0
   18.7733   39.1473   50.1710 O   0  0  0  0  0  0  0  0  0  0  0  0
   17.5920   38.3495   50.1299 C   0  0  0  0  0  0  0  0  0  0  0  0
   16.4862   39.1465   49.8937 F   0  0  0  0  0  0  0  0  0  0  0  0
   17.7066   37.4317   49.1039 F   0  0  0  0  0  0  0  0  0  0  0  0
   17.4357   37.6672   51.3231 F   0  0  0  0  0  0  0  0  0  0  0  0
   20.2325   40.8769   50.9865 C   0  0  0  0  0  0  0  0  0  0  0  0
   20.5272   41.9243   51.8639 C   0  0  0  0  0  0  0  0  0  0  0  0
   17.7542   44.4472   53.7064 N   0  0  0  0  0  0  0  0  0  0  0  0
   16.8538   45.3445   54.1807 C   0  0  0  0  0  0  0  0  0  0  0  0
   17.1781   46.1446   55.2281 N   0  0  0  0  0  0  0  0  0  0  0  0
   17.6655   47.4236   57.8021 C   0  0  0  0  0  0  0  0  0  0  0  0
  1  2  1  0
  2  3  2  0
  2  4  1  0
  4  5  2  0
  5  6  1  0
  6  7  2  0
  7  8  1  0
  8  9  1  0
  9 10  2  0
 10 11  1  0
 11 12  1  0
 12 13  1  0
 13 14  2  0
 14 15  1  0
 15 16  2  0
 16 17  1  0
 17 18  1  0
 18 19  1  0
 18 20  1  0
 18 21  1  0
 16 22  1  0
 22 23  2  0
 11 24  2  0
 24 25  1  0
 25 26  2  0
  8 27  2  0
 27  4  1  0
 26  9  1  0
 23 13  1  0
M  END
$$$$
3K5V_STI
     RDKit          3D

 37 41  0  0  0  0  0  0  0  0999 V2000
   18.1394   39.4435   49.9799 C   0  0  0  0  0  0  0  0  0  0  0  0
   18.7094   40.3802   51.0109 C   0  0  0  0  0  0  0  0  0  0  0  0
   17.8736   41.3508   51.5842 C   0  0  0  0  0  0  0  0  0  0  0  0
   18.3770   42.2613   52.5151 C   0  0  0  0  0  0  0  0  0  0  0  0
   19.7282   42.2291   52.8831 C   0  0  0  0  0  0  0  0  0  0  0  0
   20.2193   43.1721   53.8518 N   0  0  0  0  0  0  0  0  0  0  0  0
   21.5729   43.6558   53.8793 C   0  0  0  0  0  0  0  0  0  0  0  0
   22.2750   43.6067   52.8322 O   0  0  0  0  0  0  0  0  0  0  0  0
   22.1397   44.2591   55.1100 C   0  0  0  0  0  0  0  0  0  0  0  0
   23.2763   45.0844   55.0349 C   0  0  0  0  0  0  0  0  0  0  0  0
   23.8192   45.6531   56.1903 C   0  0  0  0  0  0  0  0  0  0  0  0
   23.2422   45.4003   57.4436 C   0  0  0  0  0  0  0  0  0  0  0  0
   23.8128   46.0310   58.6930 C   0  0  0  0  0  0  0  0  0  0  0  0
   22.9812   47.1597   59.1754 N   0  0  0  0  0  4  0  0  0  0  0  0
   23.0499   48.3083   58.2456 C   0  0  0  0  0  0  0  0  0  0  0  0
   22.2081   49.4893   58.7606 C   0  0  0  0  0  0  0  0  0  0  0  0
   22.5816   49.8969   60.1322 N   0  0  0  0  0  4  0  0  0  0  0  0
   23.8504   50.6499   60.1637 C   0  0  0  0  0  0  0  0  0  0  0  0
   22.5937   48.7423   61.0562 C   0  0  0  0  0  0  0  0  0  0  0  0
   23.4330   47.5688   60.5214 C   0  0  0  0  0  0  0  0  0  0  0  0
   22.1133   44.5723   57.5245 C   0  0  0  0  0  0  0  0  0  0  0  0
   21.5687   44.0032   56.3698 C   0  0  0  0  0  0  0  0  0  0  0  0
   20.5602   41.2331   52.3440 C   0  0  0  0  0  0  0  0  0  0  0  0
   20.0577   40.2968   51.4299 C   0  0  0  0  0  0  0  0  0  0  0  0
   20.9372   39.2800   50.9297 N   0  0  0  0  0  0  0  0  0  0  0  0
   20.7186   37.8870   51.1829 C   0  0  0  0  0  0  0  0  0  0  0  0
   21.5309   36.9612   50.6101 N   0  0  0  0  0  0  0  0  0  0  0  0
   21.3464   35.6358   50.8373 C   0  0  0  0  0  0  0  0  0  0  0  0
   20.3166   35.2064   51.6739 C   0  0  0  0  0  0  0  0  0  0  0  0
   19.4919   36.1690   52.2789 C   0  0  0  0  0  0  0  0  0  0  0  0
   18.3735   35.7949   53.1843 C   0  0  0  0  0  0  0  0  0  0  0  0
   17.2852   36.6686   53.3572 C   0  0  0  0  0  0  0  0  0  0  0  0
   16.2349   36.3269   54.2102 C   0  0  0  0  0  0  0  0  0  0  0  0
   16.2790   35.1145   54.8971 C   0  0  0  0  0  0  0  0  0  0  0  0
   17.3403   34.2818   54.7379 N   0  0  0  0  0  0  0  0  0  0  0  0
   18.3756   34.5881   53.9109 C   0  0  0  0  0  0  0  0  0  0  0  0
   19.7169   37.4843   52.0108 N   0  0  0  0  0  0  0  0  0  0  0  0
  1  2  1  0
  2  3  2  0
  3  4  1  0
  4  5  2  0
  5  6  1  0
  6  7  1  0
  7  8  2  0
  7  9  1  0
  9 10  2  0
 10 11  1  0
 11 12  2  0
 12 13  1  0
 13 14  1  0
 14 15  1  0
 15 16  1  0
 16 17  1  0
 17 18  1  0
 17 19  1  0
 19 20  1  0
 12 21  1  0
 21 22  2  0
  5 23  1  0
 23 24  2  0
 24 25  1  0
 25 26  1  0
 26 27  2  0
 27 28  1  0
 28 29  2  0
 29 30  1  0
 30 31  1  0
 31 32  2  0
 32 33  1  0
 33 34  2  0
 34 35  1  0
 35 36  2  0
 30 37  2  0
 24  2  1  0
 37 26  1  0
 22  9  1  0
 36 31  1  0
 20 14  1  0
M  CHG  2  14   1  17   1
M  END
$$$$
3KFA_B91
     RDKit          3D

 41 46  0  0  0  0  0  0  0  0999 V2000
   13.5639   40.7807   49.1013 C   0  0  0  0  0  0  0  0  0  0  0  0
   14.5671   41.1642   50.1371 C   0  0  0  0  0  0  0  0  0  0  0  0
   15.9217   40.9308   50.0718 C   0  0  0  0  0  0  0  0  0  0  0  0
   16.4704   41.3684   51.2207 N   0  0  0  0  0  0  0  0  0  0  0  0
   17.8632   41.3299   51.5938 C   0  0  0  0  0  0  0  0  0  0  0  0
   18.3803   42.2544   52.5173 C   0  0  0  0  0  0  0  0  0  0  0  0
   19.7315   42.2236   52.8874 C   0  0  0  0  0  0  0  0  0  0  0  0
   20.2181   43.1658   53.8594 N   0  0  0  0  0  0  0  0  0  0  0  0
   21.5650   43.6685   53.8781 C   0  0  0  0  0  0  0  0  0  0  0  0
   22.2612   43.6280   52.8264 O   0  0  0  0  0  0  0  0  0  0  0  0
   22.1314   44.2806   55.1051 C   0  0  0  0  0  0  0  0  0  0  0  0
   21.5779   44.0102   56.3659 C   0  0  0  0  0  0  0  0  0  0  0  0
   22.1293   44.5727   57.5177 C   0  0  0  0  0  0  0  0  0  0  0  0
   23.2494   45.4147   57.4412 C   0  0  0  0  0  0  0  0  0  0  0  0
   23.8365   45.9485   58.7224 C   0  0  0  0  0  0  0  0  0  0  0  0
   23.7915   45.7289   56.1687 C   0  0  0  0  0  0  0  0  0  0  0  0
   24.9443   46.6383   55.9871 C   0  0  0  0  0  0  0  0  0  0  0  0
   24.9594   47.8763   56.4959 C   0  0  0  0  0  0  0  0  0  0  0  0
   26.0570   48.7818   56.2916 N   0  0  0  0  0  0  0  0  0  0  0  0
   27.2574   48.5730   55.6834 C   0  0  0  0  0  0  0  0  0  0  0  0
   28.0654   49.6692   55.6922 N   0  0  0  0  0  0  0  0  0  0  0  0
   27.3191   50.5844   56.3374 C   0  0  0  0  0  0  0  0  0  0  0  0
   27.6201   51.9043   56.6559 C   0  0  0  0  0  0  0  0  0  0  0  0
   28.8756   52.4945   56.2952 N   0  0  0  0  0  0  0  0  0  0  0  0
   29.1745   53.8916   56.5944 C   0  0  0  0  0  0  0  0  0  0  0  0
   30.6224   54.1443   56.9774 C   0  0  0  0  0  0  0  0  0  0  0  0
   29.5438   54.1270   58.0492 C   0  0  0  0  0  0  0  0  0  0  0  0
   26.6709   52.6209   57.3326 N   0  0  0  0  0  0  0  0  0  0  0  0
   25.4682   52.0634   57.6854 C   0  0  0  0  0  0  0  0  0  0  0  0
   25.1858   50.7645   57.3664 N   0  0  0  0  0  0  0  0  0  0  0  0
   26.1267   50.0561   56.6955 C   0  0  0  0  0  0  0  0  0  0  0  0
   23.2466   45.1313   55.0211 C   0  0  0  0  0  0  0  0  0  0  0  0
   20.5706   41.2363   52.3450 C   0  0  0  0  0  0  0  0  0  0  0  0
   20.0817   40.3215   51.3986 C   0  0  0  0  0  0  0  0  0  0  0  0
   20.9775   39.2361   50.8551 C   0  0  0  0  0  0  0  0  0  0  0  0
   20.5841   38.8705   49.5792 F   0  0  0  0  0  0  0  0  0  0  0  0
   22.2906   39.6700   50.7936 F   0  0  0  0  0  0  0  0  0  0  0  0
   20.9067   38.1309   51.6824 F   0  0  0  0  0  0  0  0  0  0  0  0
   18.7232   40.3635   51.0435 C   0  0  0  0  0  0  0  0  0  0  0  0
   15.4377   41.8413   51.9539 C   0  0  0  0  0  0  0  0  0  0  0  0
   14.2507   41.7222   51.3223 N   0  0  0  0  0  0  0  0  0  0  0  0
  1  2  1  0
  2  3  2  0
  3  4  1  0
  4  5  1  0
  5  6  2  0
  6  7  1  0
  7  8  1  0
  8  9  1  0
  9 10  2  0
  9 11  1  0
 11 12  2  0
 12 13  1  0
 13 14  2  0
 14 15  1  0
 14 16  1  0
 16 17  1  0
 17 18  2  0
 18 19  1  0
 19 20  1  0
 20 21  2  0
 21 22  1  0
 22 23  2  0
 23 24  1  0
 24 25  1  0
 25 26  1  0
 26 27  1  0
 23 28  1  0
 28 29  2  0
 29 30  1  0
 30 31  2  0
 16 32  2  0
  7 33  2  0
 33 34  1  0
 34 35  1  0
 35 36  1  0
 35 37  1  0
 35 38  1  0
 34 39  2  0
  4 40  1  0
 40 41  2  0
 41  2  1  0
 39  5  1  0
 32 11  1  0
 31 19  1  0
 31 22  1  0
 27 25  1  0
M  END
$$$$
