1BNN_AL1
foHydescor03072114473D 1   1.00000     0.00000     0
Hydescorer 1.1.0 fol007
 36 38  0  0  0  0            999 V2000
   -5.0563    2.2551   15.7111 C   0  0  0  0  0  0  0  0  0  0  0  0
   -2.3565    5.0049   12.9056 C   0  0  0  0  0  0  0  0  0  0  0  0
   -2.1664    4.1418   14.1426 C   0  0  0  0  0  0  0  0  0  0  0  0
   -2.8469    9.2607   11.7753 C   0  0  0  0  0  0  0  0  0  0  0  0
   -2.2682    9.8897   12.8654 C   0  0  0  0  0  0  0  0  0  0  0  0
   -2.1159    9.1683   14.0669 C   0  0  0  0  0  0  0  0  0  0  0  0
   -2.5190    7.8546   14.2051 C   0  0  0  0  0  0  0  0  0  0  0  0
   -1.0342   11.0172   14.9863 C   0  0  0  0  0  0  0  0  0  0  0  0
   -5.4791   -0.3902   16.2020 N   0  5  0  0  0  0  0  0  0  0  0  0
   -5.7202    0.9896   16.6761 S   0  0  0  0  0  0  0  0  0  0  0  0
   -5.0419    1.1158   17.9117 O   0  0  0  0  0  0  0  0  0  0  0  0
   -7.0927    1.2765   16.6535 O   0  0  0  0  0  0  0  0  0  0  0  0
   -6.0875    3.4172   14.9819 S   0  0  0  0  0  0  0  0  0  0  0  0
   -4.6984    4.1300   14.3120 C   0  0  0  0  0  0  0  0  0  0  0  0
   -3.4642    3.5195   14.6465 C   0  0  0  0  0  0  0  0  0  0  0  0
   -3.7065    2.4272   15.4518 C   0  0  0  0  0  0  0  0  0  0  0  0
   -3.4021    5.9714   13.1900 N   0  0  0  0  0  0  0  0  0  0  0  0
   -4.8367    5.4787   13.2583 S   0  0  0  0  0  0  0  0  0  0  0  0
   -5.3682    4.9061   11.9883 O   0  0  0  0  0  0  0  0  0  0  0  0
   -5.8626    6.4851   13.6359 O   0  0  0  0  0  0  0  0  0  0  0  0
   -3.0823    7.2667   13.0967 C   0  0  0  0  0  0  0  0  0  0  0  0
   -3.2613    7.9358   11.8846 C   0  0  0  0  0  0  0  0  0  0  0  0
   -1.5712    9.6806   15.1289 O   0  0  0  0  0  0  0  0  0  0  0  0
   -2.6248    4.4328   12.1305 H   0  0  0  0  0  0  0  0  0  0  0  0
   -1.5040    5.4808   12.6893 H   0  0  0  0  0  0  0  0  0  0  0  0
   -1.7827    4.7100   14.8706 H   0  0  0  0  0  0  0  0  0  0  0  0
   -1.5261    3.4062   13.9215 H   0  0  0  0  0  0  0  0  0  0  0  0
   -2.9664    9.7554   10.9145 H   0  0  0  0  0  0  0  0  0  0  0  0
   -1.9635   10.8400   12.8011 H   0  0  0  0  0  0  0  0  0  0  0  0
   -2.4072    7.3572   15.0655 H   0  0  0  0  0  0  0  0  0  0  0  0
   -0.6414   11.3132   15.8570 H   0  0  0  0  0  0  0  0  0  0  0  0
   -0.3235   11.0175   14.2828 H   0  0  0  0  0  0  0  0  0  0  0  0
   -1.7666   11.6441   14.7207 H   0  0  0  0  0  0  0  0  0  0  0  0
   -4.8152   -0.8374   16.8014 H   0  0  0  0  0  0  0  0  0  0  0  0
   -2.9898    1.8277   15.8080 H   0  0  0  0  0  0  0  0  0  0  0  0
   -3.6812    7.4701   11.1056 H   0  0  0  0  0  0  0  0  0  0  0  0
  3  2  1  0  0  0  0
  5  4  2  0  0  0  0
  6  5  1  0  0  0  0
  7  6  2  0  0  0  0
 10  9  1  0  0  0  0
 10  1  1  0  0  0  0
 11 10  2  0  0  0  0
 12 10  2  0  0  0  0
 13  1  1  0  0  0  0
 14 13  1  0  0  0  0
 15 14  2  0  0  0  0
 15  3  1  0  0  0  0
 16 15  1  0  0  0  0
 16  1  2  0  0  0  0
 17  2  1  0  0  0  0
 18 14  1  0  0  0  0
 18 17  1  0  0  0  0
 19 18  2  0  0  0  0
 20 18  2  0  0  0  0
 21 17  1  0  0  0  0
 21  7  1  0  0  0  0
 22 21  2  0  0  0  0
 22  4  1  0  0  0  0
 23  8  1  0  0  0  0
 23  6  1  0  0  0  0
  2 24  1  0  0  0  0
  2 25  1  0  0  0  0
  3 26  1  0  0  0  0
  3 27  1  0  0  0  0
  4 28  1  0  0  0  0
  5 29  1  0  0  0  0
  7 30  1  0  0  0  0
  8 31  1  0  0  0  0
  8 32  1  0  0  0  0
  8 33  1  0  0  0  0
 22 36  1  0  0  0  0
  9 34  1  0  0  0  0
 16 35  1  0  0  0  0
M  CHG  1   9  -1
M  END
> <BIOSOLVEIT.HYDE_ESTIMATED_AFFINITY_LOWER_BOUNDARY [nM]>
393.863322

> <BIOSOLVEIT.HYDE_ESTIMATED_AFFINITY_UPPER_BOUNDARY [nM]>
39132.649751

> <BIOSOLVEIT.HYDE_LIGAND_EFFICIENCY range: ++, +, 0, -, -->
0

> <BIOSOLVEIT.HYDE_LIGAND_LIPOPHILIC_EFFICIENCY range: ++, +, 0, -, -->
--

> <BIOSOLVEIT.INTER_CLASH range: red, yellow, green>
green

> <BIOSOLVEIT.INTRA_CLASH range: red, yellow, green>
green

> <BIOSOLVEIT.LOGP>
3.5502

> <BIOSOLVEIT.MOLECULAR WEIGHT>
373.45

> <BIOSOLVEIT.MOLECULE_CHECKSUM>
LTMwLjg1Nzg7MS4zNDE2NA==

> <BIOSOLVEIT.TORSION_QUALITY range: red, yellow, green, not rotatable>
green

> <BIOSOLVEIT.TPSA>
80.75

$$$$
