1BNQ_AL4
foHydescor03072114473D 1   1.00000     0.00000     0
Hydescorer 1.1.0 fol007
 41 42  0  0  0  0            999 V2000
   -5.4231    2.0782   16.3239 C   0  0  0  0  0  0  0  0  0  0  0  0
   -3.4494    5.5789   13.6328 C   0  0  0  0  0  0  0  0  0  0  0  0
   -3.0403    4.2317   14.2843 C   0  0  1  0  0  0  0  0  0  0  0  0
   -3.5564    7.6833   14.8598 C   0  0  0  0  0  0  0  0  0  0  0  0
   -2.1039    7.5867   14.4355 C   0  0  0  0  0  0  0  0  0  0  0  0
   -1.6361    9.4679   15.8121 C   0  0  0  0  0  0  0  0  0  0  0  0
   -1.4652    3.7977   12.3978 C   0  0  0  0  0  0  0  0  0  0  0  0
   -5.4062    0.5904   18.4124 O   0  0  0  0  0  0  0  0  0  0  0  0
   -7.3452    0.7825   17.1390 O   0  0  0  0  0  0  0  0  0  0  0  0
   -5.4569   -0.5514   16.3568 N   0  5  0  0  0  0  0  0  0  0  0  0
   -5.9378    0.6452   17.0930 S   0  0  0  0  0  0  0  0  0  0  0  0
   -4.2408    2.3005   15.6762 C   0  0  0  0  0  0  0  0  0  0  0  0
   -4.1272    3.5522   15.1367 C   0  0  0  0  0  0  0  0  0  0  0  0
   -5.2651    4.2996   15.4216 C   0  0  0  0  0  0  0  0  0  0  0  0
   -6.4603    3.4469   16.2926 S   0  0  0  0  0  0  0  0  0  0  0  0
   -5.4738    5.9648   15.0574 S   0  0  0  0  0  0  0  0  0  0  0  0
   -6.3920    6.0778   13.9820 O   0  0  0  0  0  0  0  0  0  0  0  0
   -6.0210    6.6842   16.1456 O   0  0  0  0  0  0  0  0  0  0  0  0
   -4.0713    6.3475   14.7031 N   0  0  0  0  0  0  0  0  0  0  0  0
   -2.6146    3.3562   13.1953 N   0  3  0  0  0  0  0  0  0  0  0  0
   -1.4908    8.8596   14.5277 O   0  0  0  0  0  0  0  0  0  0  0  0
   -0.9948    2.7531   11.3757 C   0  0  0  0  0  0  0  0  0  0  0  0
   -4.0991    5.4252   12.8882 H   0  0  0  0  0  0  0  0  0  0  0  0
   -2.6448    6.0565   13.2800 H   0  0  0  0  0  0  0  0  0  0  0  0
   -2.2486    4.4008   14.8715 H   0  0  0  0  0  0  0  0  0  0  0  0
   -4.0532    8.3239   14.2742 H   0  0  0  0  0  0  0  0  0  0  0  0
   -3.6269    7.9791   15.8124 H   0  0  0  0  0  0  0  0  0  0  0  0
   -2.0550    7.2624   13.4908 H   0  0  0  0  0  0  0  0  0  0  0  0
   -1.6255    6.9438   15.0338 H   0  0  0  0  0  0  0  0  0  0  0  0
   -1.1836   10.3597   15.8117 H   0  0  0  0  0  0  0  0  0  0  0  0
   -2.6076    9.5872   16.0165 H   0  0  0  0  0  0  0  0  0  0  0  0
   -1.2186    8.8826   16.5071 H   0  0  0  0  0  0  0  0  0  0  0  0
   -0.7070    3.9978   13.0183 H   0  0  0  0  0  0  0  0  0  0  0  0
   -1.7216    4.6297   11.9057 H   0  0  0  0  0  0  0  0  0  0  0  0
   -4.6390   -0.9122   16.8051 H   0  0  0  0  0  0  0  0  0  0  0  0
   -3.5220    1.6091   15.6030 H   0  0  0  0  0  0  0  0  0  0  0  0
   -2.3823    2.4692   13.5944 H   0  0  0  0  0  0  0  0  0  0  0  0
   -0.2128    3.1132   10.8669 H   0  0  0  0  0  0  0  0  0  0  0  0
   -0.7253    1.9170   11.8535 H   0  0  0  0  0  0  0  0  0  0  0  0
   -1.7400    2.5488   10.7409 H   0  0  0  0  0  0  0  0  0  0  0  0
   -3.3903    3.2491   12.5734 H   0  0  0  0  0  0  0  0  0  0  0  0
  3  2  1  0  0  0  0
  5  4  1  0  0  0  0
 11 10  1  0  0  0  0
 11  9  2  0  0  0  0
 11  1  1  0  0  0  0
 11  8  2  0  0  0  0
 12  1  2  0  0  0  0
 13 12  1  0  0  0  0
 13  3  1  0  0  0  0
 14 13  2  0  0  0  0
 15 14  1  0  0  0  0
 15  1  1  0  0  0  0
 16 14  1  0  0  0  0
 17 16  2  0  0  0  0
 18 16  2  0  0  0  0
 19  2  1  0  0  0  0
 19 16  1  0  0  0  0
 19  4  1  0  0  0  0
 20  7  1  0  0  0  0
  3 20  1  0  0  0  0
 21  6  1  0  0  0  0
 21  5  1  0  0  0  0
 22  7  1  0  0  0  0
  2 23  1  0  0  0  0
  2 24  1  0  0  0  0
  3 25  1  0  0  0  0
  4 26  1  0  0  0  0
  4 27  1  0  0  0  0
  5 28  1  0  0  0  0
  5 29  1  0  0  0  0
  6 30  1  0  0  0  0
  6 31  1  0  0  0  0
  6 32  1  0  0  0  0
  7 33  1  0  0  0  0
  7 34  1  0  0  0  0
 20 41  1  0  0  0  0
 10 35  1  0  0  0  0
 12 36  1  0  0  0  0
 20 37  1  0  0  0  0
 22 38  1  0  0  0  0
 22 39  1  0  0  0  0
 22 40  1  0  0  0  0
M  CHG  2  10  -1  20   1
M  END
> <BIOSOLVEIT.HYDE_ESTIMATED_AFFINITY_LOWER_BOUNDARY [nM]>
311.581878

> <BIOSOLVEIT.HYDE_ESTIMATED_AFFINITY_UPPER_BOUNDARY [nM]>
30957.501771

> <BIOSOLVEIT.HYDE_LIGAND_EFFICIENCY range: ++, +, 0, -, -->
0

> <BIOSOLVEIT.HYDE_LIGAND_LIPOPHILIC_EFFICIENCY range: ++, +, 0, -, -->
0

> <BIOSOLVEIT.INTER_CLASH range: red, yellow, green>
green

> <BIOSOLVEIT.INTRA_CLASH range: red, yellow, green>
green

> <BIOSOLVEIT.LOGP>
1.0653

> <BIOSOLVEIT.MOLECULAR WEIGHT>
369.482

> <BIOSOLVEIT.MOLECULE_CHECKSUM>
LTMxLjQzODc7MS40MjkwMw==

> <BIOSOLVEIT.TORSION_QUALITY range: red, yellow, green, not rotatable>
red

> <BIOSOLVEIT.TPSA>
97.36

$$$$
