1BNV_AL7
foHydescor03072114473D 1   1.00000     0.00000     0
Hydescorer 1.1.0 fol007
 42 44  0  0  0  0            999 V2000
   -5.5983    1.9476   15.9851 C   0  0  0  0  0  0  0  0  0  0  0  0
   -4.1696    4.3690   12.1721 C   0  0  0  0  0  0  0  0  0  0  0  0
   -3.5293    3.2934   13.0627 C   0  0  2  0  0  0  0  0  0  0  0  0
   -1.7869    3.9662   12.1879 C   0  0  0  0  0  0  0  0  0  0  0  0
   -2.6991    8.4397   11.4774 C   0  0  0  0  0  0  0  0  0  0  0  0
   -2.0112    9.0095   12.5362 C   0  0  0  0  0  0  0  0  0  0  0  0
   -2.0509    8.4027   13.7886 C   0  0  0  0  0  0  0  0  0  0  0  0
   -2.7716    7.2158   13.9902 C   0  0  0  0  0  0  0  0  0  0  0  0
   -0.7789   10.1583   14.7561 C   0  0  0  0  0  0  0  0  0  0  0  0
   -5.8972   -0.6343   16.7083 N   0  5  0  0  0  0  0  0  0  0  0  0
   -6.1010    0.7646   17.1457 S   0  0  0  0  0  0  0  0  0  0  0  0
   -5.4004    1.0453   18.3446 O   0  0  0  0  0  0  0  0  0  0  0  0
   -7.4672    1.0364   17.1794 O   0  0  0  0  0  0  0  0  0  0  0  0
   -6.3138    3.5067   15.9685 S   0  0  0  0  0  0  0  0  0  0  0  0
   -5.3341    3.9105   14.6472 C   0  0  0  0  0  0  0  0  0  0  0  0
   -4.4623    2.9075   14.2082 C   0  0  0  0  0  0  0  0  0  0  0  0
   -4.6430    1.7932   14.9964 C   0  0  0  0  0  0  0  0  0  0  0  0
   -4.2708    5.5550   13.0204 N   0  0  0  0  0  0  0  0  0  0  0  0
   -5.4601    5.4546   13.9272 S   0  0  0  0  0  0  0  0  0  0  0  0
   -6.7137    5.5412   13.1186 O   0  0  0  0  0  0  0  0  0  0  0  0
   -5.4407    6.4332   15.0504 O   0  0  0  0  0  0  0  0  0  0  0  0
   -2.2328    3.7404   13.5619 N   0  3  0  0  0  0  0  0  0  0  0  0
   -3.4831    6.6424   12.9161 C   0  0  0  0  0  0  0  0  0  0  0  0
   -3.4296    7.2695   11.6644 C   0  0  0  0  0  0  0  0  0  0  0  0
   -1.4801    8.9114   14.8415 O   0  0  0  0  0  0  0  0  0  0  0  0
   -5.0761    4.0777   11.8664 H   0  0  0  0  0  0  0  0  0  0  0  0
   -3.5932    4.5548   11.3763 H   0  0  0  0  0  0  0  0  0  0  0  0
   -3.3786    2.4796   12.5015 H   0  0  0  0  0  0  0  0  0  0  0  0
   -0.8468    4.3070   12.1943 H   0  0  0  0  0  0  0  0  0  0  0  0
   -1.8264    3.1063   11.6790 H   0  0  0  0  0  0  0  0  0  0  0  0
   -2.3827    4.6400   11.7506 H   0  0  0  0  0  0  0  0  0  0  0  0
   -2.6707    8.8706   10.5755 H   0  0  0  0  0  0  0  0  0  0  0  0
   -1.4891    9.8517   12.4018 H   0  0  0  0  0  0  0  0  0  0  0  0
   -2.7807    6.7792   14.8898 H   0  0  0  0  0  0  0  0  0  0  0  0
   -0.4071   10.3939   15.6540 H   0  0  0  0  0  0  0  0  0  0  0  0
   -0.0314   10.0759   14.0970 H   0  0  0  0  0  0  0  0  0  0  0  0
   -1.4090   10.8753   14.4576 H   0  0  0  0  0  0  0  0  0  0  0  0
   -5.5539   -1.1766   17.4752 H   0  0  0  0  0  0  0  0  0  0  0  0
   -4.1285    0.9458   14.8656 H   0  0  0  0  0  0  0  0  0  0  0  0
   -2.2732    4.5691   14.1202 H   0  0  0  0  0  0  0  0  0  0  0  0
   -3.9244    6.8701   10.8926 H   0  0  0  0  0  0  0  0  0  0  0  0
   -1.7169    3.0354   14.0486 H   0  0  0  0  0  0  0  0  0  0  0  0
  3  2  1  0  0  0  0
  6  5  2  0  0  0  0
  7  6  1  0  0  0  0
  8  7  2  0  0  0  0
 11  1  1  0  0  0  0
 11 10  1  0  0  0  0
 12 11  2  0  0  0  0
 13 11  2  0  0  0  0
 14  1  1  0  0  0  0
 15 14  1  0  0  0  0
 16 15  2  0  0  0  0
 16  3  1  0  0  0  0
 17  1  2  0  0  0  0
 17 16  1  0  0  0  0
 18  2  1  0  0  0  0
 19 15  1  0  0  0  0
 19 18  1  0  0  0  0
 20 19  2  0  0  0  0
 21 19  2  0  0  0  0
 22  4  1  0  0  0  0
  3 22  1  0  0  0  0
 23 18  1  0  0  0  0
 23  8  1  0  0  0  0
 24 23  2  0  0  0  0
 24  5  1  0  0  0  0
 25  9  1  0  0  0  0
 25  7  1  0  0  0  0
  2 26  1  0  0  0  0
  2 27  1  0  0  0  0
  3 28  1  0  0  0  0
  4 29  1  0  0  0  0
  4 30  1  0  0  0  0
  4 31  1  0  0  0  0
  5 32  1  0  0  0  0
  6 33  1  0  0  0  0
  8 34  1  0  0  0  0
  9 35  1  0  0  0  0
  9 36  1  0  0  0  0
  9 37  1  0  0  0  0
 22 42  1  0  0  0  0
 10 38  1  0  0  0  0
 17 39  1  0  0  0  0
 22 40  1  0  0  0  0
 24 41  1  0  0  0  0
M  CHG  2  10  -1  22   1
M  END
> <BIOSOLVEIT.HYDE_ESTIMATED_AFFINITY_LOWER_BOUNDARY [nM]>
1578.502860

> <BIOSOLVEIT.HYDE_ESTIMATED_AFFINITY_UPPER_BOUNDARY [nM]>
156833.591952

> <BIOSOLVEIT.HYDE_LIGAND_EFFICIENCY range: ++, +, 0, -, -->
-

> <BIOSOLVEIT.HYDE_LIGAND_LIPOPHILIC_EFFICIENCY range: ++, +, 0, -, -->
-

> <BIOSOLVEIT.INTER_CLASH range: red, yellow, green>
green

> <BIOSOLVEIT.INTRA_CLASH range: red, yellow, green>
green

> <BIOSOLVEIT.LOGP>
2.242

> <BIOSOLVEIT.MOLECULAR WEIGHT>
403.499

> <BIOSOLVEIT.MOLECULE_CHECKSUM>
LTI3LjQxNjU7MS4wOTY2Ng==

> <BIOSOLVEIT.TORSION_QUALITY range: red, yellow, green, not rotatable>
yellow

> <BIOSOLVEIT.TPSA>
97.36

$$$$
