1KWR_SG2
foHydescor03072114473D 1   1.00000     0.00000     0
Hydescorer 1.1.0 fol007
 22 23  0  0  0  0            999 V2000
   -5.4310    1.1103   16.4702 S   0  0  0  0  0  0  0  0  0  0  0  0
   -4.6811    2.4701   15.6405 C   0  0  0  0  0  0  0  0  0  0  0  0
   -3.2986    2.5006   15.6453 C   0  0  0  0  0  0  0  0  0  0  0  0
   -2.6707    3.5412   15.0056 C   0  0  0  0  0  0  0  0  0  0  0  0
   -3.4157    4.5334   14.3288 C   0  0  0  0  0  0  0  0  0  0  0  0
   -2.8360    5.6256   13.6312 N   0  0  0  0  0  0  0  0  0  0  0  0
   -1.3938    5.8351   13.5168 C   0  0  0  0  0  0  0  0  0  0  0  0
   -4.0981    6.5412   12.9905 S   0  0  0  0  0  0  0  0  0  0  0  0
   -5.4480    5.6061   13.5668 C   0  0  0  0  0  0  0  0  0  0  0  0
   -6.6211    5.8675   13.3763 O   0  0  0  0  0  0  0  0  0  0  0  0
   -4.8164    4.4918   14.3262 C   0  0  0  0  0  0  0  0  0  0  0  0
   -5.4615    3.4439   14.9816 C   0  0  0  0  0  0  0  0  0  0  0  0
   -4.9589   -0.3465   15.6482 N   0  5  0  0  0  0  0  0  0  0  0  0
   -6.8646    1.2859   16.3682 O   0  0  0  0  0  0  0  0  0  0  0  0
   -5.0191    1.0603   17.8531 O   0  0  0  0  0  0  0  0  0  0  0  0
   -2.7705    1.7846   16.1020 H   0  0  0  0  0  0  0  0  0  0  0  0
   -1.6724    3.5976   15.0189 H   0  0  0  0  0  0  0  0  0  0  0  0
   -1.2185    6.6631   12.9840 H   0  0  0  0  0  0  0  0  0  0  0  0
   -0.9982    5.9362   14.4297 H   0  0  0  0  0  0  0  0  0  0  0  0
   -0.9781    5.0496   13.0584 H   0  0  0  0  0  0  0  0  0  0  0  0
   -6.4596    3.3834   14.9847 H   0  0  0  0  0  0  0  0  0  0  0  0
   -4.0656   -0.6445   15.9845 H   0  0  0  0  0  0  0  0  0  0  0  0
  2  1  1  0  0  0  0
  3  2  2  0  0  0  0
  4  3  1  0  0  0  0
  5  4  2  0  0  0  0
  6  5  1  0  0  0  0
  7  6  1  0  0  0  0
  8  6  1  0  0  0  0
  9  8  1  0  0  0  0
 10  9  2  0  0  0  0
 11  9  1  0  0  0  0
 11  5  1  0  0  0  0
 12 11  2  0  0  0  0
 12  2  1  0  0  0  0
 13  1  1  0  0  0  0
 14  1  2  0  0  0  0
 15  1  2  0  0  0  0
  3 16  1  0  0  0  0
  4 17  1  0  0  0  0
  7 18  1  0  0  0  0
  7 19  1  0  0  0  0
  7 20  1  0  0  0  0
 12 21  1  0  0  0  0
 13 22  1  0  0  0  0
M  CHG  1  13  -1
M  END
> <BIOSOLVEIT.HYDE_ESTIMATED_AFFINITY_LOWER_BOUNDARY [nM]>
20220.699217

> <BIOSOLVEIT.HYDE_ESTIMATED_AFFINITY_UPPER_BOUNDARY [nM]>
2009046.021433

> <BIOSOLVEIT.HYDE_LIGAND_EFFICIENCY range: ++, +, 0, -, -->
0

> <BIOSOLVEIT.HYDE_LIGAND_LIPOPHILIC_EFFICIENCY range: ++, +, 0, -, -->
--

> <BIOSOLVEIT.INTER_CLASH range: red, yellow, green>
green

> <BIOSOLVEIT.INTRA_CLASH range: red, yellow, green>
green

> <BIOSOLVEIT.LOGP>
2.3163

> <BIOSOLVEIT.MOLECULAR WEIGHT>
243.284

> <BIOSOLVEIT.MOLECULE_CHECKSUM>
LTIxLjA5NDY7MS40MDYz

> <BIOSOLVEIT.TORSION_QUALITY range: red, yellow, green, not rotatable>
green

> <BIOSOLVEIT.TPSA>
54.45

$$$$
