1OKM_SAB
foHydescor03072114473D 1   1.00000     0.00000     0
Hydescorer 1.1.0 fol007
 35 35  0  0  0  0            999 V2000
   -4.5304    4.3606   14.5871 C   0  0  0  0  0  0  0  0  0  0  0  0
   -3.5751    3.6024   15.2082 C   0  0  0  0  0  0  0  0  0  0  0  0
   -3.9746    2.4609   15.9792 C   0  0  0  0  0  0  0  0  0  0  0  0
   -5.3664    2.1211   16.0920 C   0  0  0  0  0  0  0  0  0  0  0  0
   -6.3134    2.9573   15.4100 C   0  0  0  0  0  0  0  0  0  0  0  0
   -5.8664    4.0873   14.6553 C   0  0  0  0  0  0  0  0  0  0  0  0
   -4.1079    5.5313   13.8348 C   0  0  0  0  0  0  0  0  0  0  0  0
   -4.7597    6.4790   13.5477 O   0  0  0  0  0  0  0  0  0  0  0  0
   -2.7265    5.5602   13.3905 N   0  0  0  0  0  0  0  0  0  0  0  0
   -2.2936    6.6223   12.4938 C   0  0  0  0  0  0  0  0  0  0  0  0
   -1.9206    7.9364   13.0341 C   0  0  0  0  0  0  0  0  0  0  0  0
   -1.4716    7.8819   14.3885 C   0  0  0  0  0  0  0  0  0  0  0  0
   -1.1557    9.1880   14.8768 C   0  0  0  0  0  0  0  0  0  0  0  0
    0.2377    9.5850   14.5181 N   0  3  0  0  0  0  0  0  0  0  0  0
   -5.8625    0.8239   16.9894 S   0  0  0  0  0  0  0  0  0  0  0  0
   -5.2618    0.7132   18.2188 O   0  0  0  0  0  0  0  0  0  0  0  0
   -7.3693    1.0288   16.9962 O   0  0  0  0  0  0  0  0  0  0  0  0
   -5.4434   -0.3173   16.2180 N   0  5  0  0  0  0  0  0  0  0  0  0
   -2.6077    3.8420   15.1252 H   0  0  0  0  0  0  0  0  0  0  0  0
   -3.2845    1.9014   16.4383 H   0  0  0  0  0  0  0  0  0  0  0  0
   -7.2900    2.7489   15.4627 H   0  0  0  0  0  0  0  0  0  0  0  0
   -6.5259    4.6714   14.1822 H   0  0  0  0  0  0  0  0  0  0  0  0
   -2.0810    4.8602   13.6960 H   0  0  0  0  0  0  0  0  0  0  0  0
   -3.0418    6.7777   11.8488 H   0  0  0  0  0  0  0  0  0  0  0  0
   -1.4953    6.2761   12.0012 H   0  0  0  0  0  0  0  0  0  0  0  0
   -2.7187    8.5370   12.9880 H   0  0  0  0  0  0  0  0  0  0  0  0
   -1.1859    8.3145   12.4709 H   0  0  0  0  0  0  0  0  0  0  0  0
   -0.6547    7.3075   14.4392 H   0  0  0  0  0  0  0  0  0  0  0  0
   -2.1932    7.4861   14.9565 H   0  0  0  0  0  0  0  0  0  0  0  0
   -1.2490    9.1938   15.8724 H   0  0  0  0  0  0  0  0  0  0  0  0
   -1.7939    9.8468   14.4784 H   0  0  0  0  0  0  0  0  0  0  0  0
    0.2113   10.3585   13.8848 H   0  0  0  0  0  0  0  0  0  0  0  0
    0.7328    9.8487   15.3459 H   0  0  0  0  0  0  0  0  0  0  0  0
   -4.5829   -0.6703   16.5855 H   0  0  0  0  0  0  0  0  0  0  0  0
    0.7025    8.8138   14.0831 H   0  0  0  0  0  0  0  0  0  0  0  0
  2  1  2  0  0  0  0
  3  2  1  0  0  0  0
  4  3  2  0  0  0  0
  5  4  1  0  0  0  0
  6  5  2  0  0  0  0
  6  1  1  0  0  0  0
  7  1  1  0  0  0  0
  8  7  2  0  0  0  0
  9  7  1  0  0  0  0
 10  9  1  0  0  0  0
 11 10  1  0  0  0  0
 12 11  1  0  0  0  0
 13 12  1  0  0  0  0
 14 13  1  0  0  0  0
 15  4  1  0  0  0  0
 16 15  2  0  0  0  0
 17 15  2  0  0  0  0
 18 15  1  0  0  0  0
  2 19  1  0  0  0  0
  3 20  1  0  0  0  0
  5 21  1  0  0  0  0
  6 22  1  0  0  0  0
  9 23  1  0  0  0  0
 10 24  1  0  0  0  0
 10 25  1  0  0  0  0
 11 26  1  0  0  0  0
 11 27  1  0  0  0  0
 12 28  1  0  0  0  0
 12 29  1  0  0  0  0
 13 30  1  0  0  0  0
 13 31  1  0  0  0  0
 14 32  1  0  0  0  0
 14 33  1  0  0  0  0
 14 35  1  0  0  0  0
 18 34  1  0  0  0  0
M  CHG  2  14   1  18  -1
M  END
> <BIOSOLVEIT.HYDE_ESTIMATED_AFFINITY_LOWER_BOUNDARY [nM]>
228.415391

> <BIOSOLVEIT.HYDE_ESTIMATED_AFFINITY_UPPER_BOUNDARY [nM]>
22694.419570

> <BIOSOLVEIT.HYDE_LIGAND_EFFICIENCY range: ++, +, 0, -, -->
+

> <BIOSOLVEIT.HYDE_LIGAND_LIPOPHILIC_EFFICIENCY range: ++, +, 0, -, -->
0

> <BIOSOLVEIT.INTER_CLASH range: red, yellow, green>
green

> <BIOSOLVEIT.INTRA_CLASH range: red, yellow, green>
green

> <BIOSOLVEIT.LOGP>
0.83

> <BIOSOLVEIT.MOLECULAR WEIGHT>
271.338

> <BIOSOLVEIT.MOLECULE_CHECKSUM>
LTMyLjIwODU7MS43ODkzNg==

> <BIOSOLVEIT.TORSION_QUALITY range: red, yellow, green, not rotatable>
yellow

> <BIOSOLVEIT.TPSA>
90.88

$$$$
