3IBN_O60
foHydescor03072114483D 1   1.00000     0.00000     0
Hydescorer 1.1.0 fol007
 44 43  0  0  0  0            999 V2000
   -5.9646    2.7750   15.2826 C   0  0  0  0  0  0  0  0  0  0  0  0
   -5.2194   -0.3166   15.8767 N   0  0  0  0  0  0  0  0  0  0  0  0
   -7.2660    0.7804   16.6398 O   0  0  0  0  0  0  0  0  0  0  0  0
   -5.8681    0.7372   16.8614 S   0  0  0  0  0  0  0  0  0  0  0  0
   -5.1448    3.9487   14.9071 C   0  0  0  0  0  0  0  0  0  0  0  0
   -3.1485   11.9081   10.8786 N   0  0  0  0  0  0  0  0  0  0  0  0
   -5.3723    0.4918   18.1697 O   0  0  0  0  0  0  0  0  0  0  0  0
   -2.8608   12.9502   12.0415 S   0  0  0  0  0  0  0  0  0  0  0  0
   -5.6774    4.7101   13.7287 C   0  0  0  0  0  0  0  0  0  0  0  0
   -5.3240    2.1422   16.4335 O   0  0  0  0  0  0  0  0  0  0  0  0
   -4.7637    5.8126   13.2693 C   0  0  0  0  0  0  0  0  0  0  0  0
   -2.4603   12.1155   13.3113 O   0  0  0  0  0  0  0  0  0  0  0  0
   -3.7673    6.2511   14.3015 C   0  0  0  0  0  0  0  0  0  0  0  0
   -1.7137   13.7211   11.6927 O   0  0  0  0  0  0  0  0  0  0  0  0
   -2.8521    7.3010   13.8251 C   0  0  0  0  0  0  0  0  0  0  0  0
   -4.0809   13.6101   12.3708 O   0  0  0  0  0  0  0  0  0  0  0  0
   -1.9280    7.8154   14.8885 C   0  0  0  0  0  0  0  0  0  0  0  0
   -0.9906    8.8922   14.4127 C   0  0  0  0  0  0  0  0  0  0  0  0
   -1.5967   10.2618   14.4382 C   0  0  0  0  0  0  0  0  0  0  0  0
   -1.8175   10.8272   13.0999 C   0  0  0  0  0  0  0  0  0  0  0  0
   -6.0083    2.1307   14.5190 H   0  0  0  0  0  0  0  0  0  0  0  0
   -6.8894    3.0680   15.5249 H   0  0  0  0  0  0  0  0  0  0  0  0
   -4.8995    0.1504   15.0524 H   0  0  0  0  0  0  0  0  0  0  0  0
   -4.4468   -0.7630   16.3281 H   0  0  0  0  0  0  0  0  0  0  0  0
   -4.2227    3.6311   14.6861 H   0  0  0  0  0  0  0  0  0  0  0  0
   -5.1049    4.5686   15.6907 H   0  0  0  0  0  0  0  0  0  0  0  0
   -4.0829   11.5624   10.9645 H   0  0  0  0  0  0  0  0  0  0  0  0
   -3.0400   12.3590    9.9926 H   0  0  0  0  0  0  0  0  0  0  0  0
   -6.5572    5.1122   13.9823 H   0  0  0  0  0  0  0  0  0  0  0  0
   -5.8089    4.0707   12.9711 H   0  0  0  0  0  0  0  0  0  0  0  0
   -5.3247    6.6017   13.0189 H   0  0  0  0  0  0  0  0  0  0  0  0
   -4.2628    5.4913   12.4656 H   0  0  0  0  0  0  0  0  0  0  0  0
   -3.2238    5.4572   14.5742 H   0  0  0  0  0  0  0  0  0  0  0  0
   -4.2661    6.6018   15.0941 H   0  0  0  0  0  0  0  0  0  0  0  0
   -3.3981    8.0657   13.4830 H   0  0  0  0  0  0  0  0  0  0  0  0
   -2.3002    6.9260   13.0802 H   0  0  0  0  0  0  0  0  0  0  0  0
   -1.3816    7.0498   15.2282 H   0  0  0  0  0  0  0  0  0  0  0  0
   -2.4814    8.1865   15.6341 H   0  0  0  0  0  0  0  0  0  0  0  0
   -0.7184    8.6833   13.4735 H   0  0  0  0  0  0  0  0  0  0  0  0
   -0.1825    8.8922   15.0018 H   0  0  0  0  0  0  0  0  0  0  0  0
   -0.9839   10.8703   14.9422 H   0  0  0  0  0  0  0  0  0  0  0  0
   -2.4771   10.2101   14.9096 H   0  0  0  0  0  0  0  0  0  0  0  0
   -2.4099   10.2272   12.5624 H   0  0  0  0  0  0  0  0  0  0  0  0
   -0.9457   10.9474   12.6252 H   0  0  0  0  0  0  0  0  0  0  0  0
  4  3  2  0  0  0  0
  4  2  1  0  0  0  0
  5  1  1  0  0  0  0
  7  4  2  0  0  0  0
  8  6  1  0  0  0  0
  9  5  1  0  0  0  0
 10  4  1  0  0  0  0
 10  1  1  0  0  0  0
 11  9  1  0  0  0  0
 12  8  1  0  0  0  0
 13 11  1  0  0  0  0
 14  8  2  0  0  0  0
 15 13  1  0  0  0  0
 16  8  2  0  0  0  0
 17 15  1  0  0  0  0
 18 17  1  0  0  0  0
 19 18  1  0  0  0  0
 20 19  1  0  0  0  0
 20 12  1  0  0  0  0
  1 21  1  0  0  0  0
  1 22  1  0  0  0  0
  2 23  1  0  0  0  0
  2 24  1  0  0  0  0
  5 25  1  0  0  0  0
  5 26  1  0  0  0  0
  6 27  1  0  0  0  0
  6 28  1  0  0  0  0
  9 29  1  0  0  0  0
  9 30  1  0  0  0  0
 11 31  1  0  0  0  0
 11 32  1  0  0  0  0
 13 33  1  0  0  0  0
 13 34  1  0  0  0  0
 15 35  1  0  0  0  0
 15 36  1  0  0  0  0
 17 37  1  0  0  0  0
 17 38  1  0  0  0  0
 18 39  1  0  0  0  0
 18 40  1  0  0  0  0
 19 41  1  0  0  0  0
 19 42  1  0  0  0  0
 20 43  1  0  0  0  0
 20 44  1  0  0  0  0
M  END
> <BIOSOLVEIT.HYDE_ESTIMATED_AFFINITY_LOWER_BOUNDARY [nM]>
217.336267

> <BIOSOLVEIT.HYDE_ESTIMATED_AFFINITY_UPPER_BOUNDARY [nM]>
21593.643083

> <BIOSOLVEIT.HYDE_LIGAND_EFFICIENCY range: ++, +, 0, -, -->
0

> <BIOSOLVEIT.HYDE_LIGAND_LIPOPHILIC_EFFICIENCY range: ++, +, 0, -, -->
0

> <BIOSOLVEIT.INTER_CLASH range: red, yellow, green>
green

> <BIOSOLVEIT.INTRA_CLASH range: red, yellow, green>
green

> <BIOSOLVEIT.LOGP>
1.8486

> <BIOSOLVEIT.MOLECULAR WEIGHT>
332.438

> <BIOSOLVEIT.MOLECULE_CHECKSUM>
LTMyLjMzMTc7MS42MTY1OQ==

> <BIOSOLVEIT.TORSION_QUALITY range: red, yellow, green, not rotatable>
red

> <BIOSOLVEIT.TPSA>
138.78

$$$$
