3KF4_B90
foHydescor03072119503D 1   1.00000     0.00000     0
Hydescorer 1.1.0 fol007
 54 58  0  0  0  0            999 V2000
   34.5823   -7.5676  -17.3982 N   0  0  0  0  0  0  0  0  0  0  0  0
   34.8712   -8.0303  -18.6054 C   0  0  0  0  0  0  0  0  0  0  0  0
   35.2833   -9.4153  -18.3973 C   0  0  0  0  0  0  0  0  0  0  0  0
   35.2031   -9.6813  -16.9810 C   0  0  0  0  0  0  0  0  0  0  0  0
   34.7687   -8.5003  -16.4562 N   0  0  0  0  0  0  0  0  0  0  0  0
   35.7076  -10.4404  -19.2702 C   0  0  0  0  0  0  0  0  0  0  0  0
   36.0473  -11.7365  -18.7345 C   0  0  0  0  0  0  0  0  0  0  0  0
   35.9565  -11.9554  -17.3301 C   0  0  0  0  0  0  0  0  0  0  0  0
   35.5323  -10.9205  -16.4645 C   0  0  0  0  0  0  0  0  0  0  0  0
   36.5001  -12.8721  -19.6185 C   0  0  0  0  0  0  0  0  0  0  0  0
   35.8037  -10.1825  -20.7389 C   0  0  0  0  0  0  0  0  0  0  0  0
   34.7455   -9.8245  -21.4886 C   0  0  0  0  0  0  0  0  0  0  0  0
   34.8226   -9.7033  -22.9573 N   0  0  0  0  0  0  0  0  0  0  0  0
   34.0317  -10.3543  -23.8466 C   0  0  0  0  0  0  0  0  0  0  0  0
   34.3357  -10.0443  -25.1120 N   0  0  0  0  0  0  0  0  0  0  0  0
   35.3918   -9.1346  -25.0405 C   0  0  0  0  0  0  0  0  0  0  0  0
   35.7005   -8.9051  -23.6742 C   0  0  0  0  0  0  0  0  0  0  0  0
   36.1510   -8.4341  -25.9648 C   0  0  0  0  0  0  0  0  0  0  0  0
   37.1514   -7.5766  -25.5631 N   0  0  0  0  0  0  0  0  0  0  0  0
   37.3782   -7.4226  -24.2252 C   0  0  0  0  0  0  0  0  0  0  0  0
   36.6894   -8.0616  -23.2675 N   0  0  0  0  0  0  0  0  0  0  0  0
   35.8747   -8.6356  -27.2852 N   0  0  0  0  0  0  0  0  0  0  0  0
   36.6220   -8.2921  -28.3973 C   0  0  0  0  0  0  0  0  0  0  0  0
   36.0770   -8.6191  -29.6708 C   0  0  0  0  0  0  0  0  0  0  0  0
   36.7696   -8.2876  -30.8536 C   0  0  0  0  0  0  0  0  0  0  0  0
   38.0095   -7.6300  -30.7849 C   0  0  0  0  0  0  0  0  0  0  0  0
   38.5760   -7.3031  -29.5283 C   0  0  0  0  0  0  0  0  0  0  0  0
   37.8886   -7.6311  -28.3378 C   0  0  0  0  0  0  0  0  0  0  0  0
   38.8485   -7.2036  -32.3430 P   0  0  0  0  0  0  0  0  0  0  0  0
   40.6558   -6.9256  -32.0142 C   0  0  0  0  0  0  0  0  0  0  0  0
   38.2604   -5.5791  -32.9984 C   0  0  0  0  0  0  0  0  0  0  0  0
   38.6552   -8.2776  -33.3303 O   0  0  0  0  0  0  0  0  0  0  0  0
   34.8183   -7.5366  -19.4735 H   0  0  0  0  0  0  0  0  0  0  0  0
   34.6079   -8.3485  -15.4810 H   0  0  0  0  0  0  0  0  0  0  0  0
   36.1952  -12.8500  -16.9522 H   0  0  0  0  0  0  0  0  0  0  0  0
   35.4706  -11.0850  -15.4800 H   0  0  0  0  0  0  0  0  0  0  0  0
   36.6852  -13.6784  -19.0567 H   0  0  0  0  0  0  0  0  0  0  0  0
   35.7823  -13.0852  -20.2812 H   0  0  0  0  0  0  0  0  0  0  0  0
   37.3329  -12.6053  -20.1034 H   0  0  0  0  0  0  0  0  0  0  0  0
   36.6937  -10.2802  -21.1842 H   0  0  0  0  0  0  0  0  0  0  0  0
   33.8754   -9.6336  -21.0342 H   0  0  0  0  0  0  0  0  0  0  0  0
   33.3062  -10.9914  -23.5866 H   0  0  0  0  0  0  0  0  0  0  0  0
   38.1028   -6.7943  -23.9417 H   0  0  0  0  0  0  0  0  0  0  0  0
   35.0086   -9.0975  -27.4764 H   0  0  0  0  0  0  0  0  0  0  0  0
   35.1956   -9.0879  -29.7273 H   0  0  0  0  0  0  0  0  0  0  0  0
   36.3774   -8.5211  -31.7434 H   0  0  0  0  0  0  0  0  0  0  0  0
   39.4615   -6.8406  -29.4837 H   0  0  0  0  0  0  0  0  0  0  0  0
   38.2893   -7.4003  -27.4510 H   0  0  0  0  0  0  0  0  0  0  0  0
   41.1180   -6.6912  -32.8694 H   0  0  0  0  0  0  0  0  0  0  0  0
   40.7643   -6.1766  -31.3606 H   0  0  0  0  0  0  0  0  0  0  0  0
   41.0578   -7.7592  -31.6356 H   0  0  0  0  0  0  0  0  0  0  0  0
   38.7374   -5.3718  -33.8525 H   0  0  0  0  0  0  0  0  0  0  0  0
   37.2761   -5.6252  -33.1691 H   0  0  0  0  0  0  0  0  0  0  0  0
   38.4492   -4.8612  -32.3283 H   0  0  0  0  0  0  0  0  0  0  0  0
  2  1  2  0  0  0  0
  3  2  1  0  0  0  0
  4  3  2  0  0  0  0
  5  4  1  0  0  0  0
  5  1  1  0  0  0  0
  6  3  1  0  0  0  0
  7  6  2  0  0  0  0
  8  7  1  0  0  0  0
  9  8  2  0  0  0  0
  9  4  1  0  0  0  0
 10  7  1  0  0  0  0
 11  6  1  0  0  0  0
 12 11  2  0  0  0  0
 13 12  1  0  0  0  0
 14 13  1  0  0  0  0
 15 14  2  0  0  0  0
 16 15  1  0  0  0  0
 17 16  2  0  0  0  0
 17 13  1  0  0  0  0
 18 16  1  0  0  0  0
 19 18  2  0  0  0  0
 20 19  1  0  0  0  0
 21 20  2  0  0  0  0
 21 17  1  0  0  0  0
 22 18  1  0  0  0  0
 23 22  1  0  0  0  0
 24 23  2  0  0  0  0
 25 24  1  0  0  0  0
 26 25  2  0  0  0  0
 27 26  1  0  0  0  0
 28 23  1  0  0  0  0
 28 27  2  0  0  0  0
 29 26  1  0  0  0  0
 30 29  1  0  0  0  0
 31 29  1  0  0  0  0
 32 29  2  0  0  0  0
  2 33  1  0  0  0  0
  5 34  1  0  0  0  0
  8 35  1  0  0  0  0
  9 36  1  0  0  0  0
 10 37  1  0  0  0  0
 10 38  1  0  0  0  0
 10 39  1  0  0  0  0
 11 40  1  0  0  0  0
 12 41  1  0  0  0  0
 14 42  1  0  0  0  0
 20 43  1  0  0  0  0
 22 44  1  0  0  0  0
 24 45  1  0  0  0  0
 25 46  1  0  0  0  0
 27 47  1  0  0  0  0
 28 48  1  0  0  0  0
 30 49  1  0  0  0  0
 30 50  1  0  0  0  0
 30 51  1  0  0  0  0
 31 52  1  0  0  0  0
 31 53  1  0  0  0  0
 31 54  1  0  0  0  0
M  END
> <BIOSOLVEIT.HYDE_ESTIMATED_AFFINITY_LOWER_BOUNDARY [nM]>
0.001173

> <BIOSOLVEIT.HYDE_ESTIMATED_AFFINITY_UPPER_BOUNDARY [nM]>
0.116512

> <BIOSOLVEIT.HYDE_LIGAND_EFFICIENCY range: ++, +, 0, -, -->
+

> <BIOSOLVEIT.HYDE_LIGAND_LIPOPHILIC_EFFICIENCY range: ++, +, 0, -, -->
+

> <BIOSOLVEIT.INTER_CLASH range: red, yellow, green>
green

> <BIOSOLVEIT.INTRA_CLASH range: red, yellow, green>
yellow

> <BIOSOLVEIT.LOGP>
4.63052

> <BIOSOLVEIT.MOLECULAR WEIGHT>
443.449

> <BIOSOLVEIT.MOLECULE_CHECKSUM>
LTYyLjQwMTI7MS45NTAwNA==

> <BIOSOLVEIT.TORSION_QUALITY range: red, yellow, green, not rotatable>
yellow

> <BIOSOLVEIT.TPSA>
101.38

$$$$
