3MS9_MS9
foHydescor03072119503D 1   1.00000     0.00000     0
Hydescorer 1.1.0 fol007
 20 20  0  0  0  0            999 V2000
    0.7943   59.2911   30.5883 Cl  0  0  0  0  0  0  0  0  0  0  0  0
   -0.9346   59.5847   30.6005 C   0  0  0  0  0  0  0  0  0  0  0  0
   -1.4278   60.7385   31.1734 C   0  0  0  0  0  0  0  0  0  0  0  0
   -2.8317   61.0271   31.2032 C   0  0  0  0  0  0  0  0  0  0  0  0
   -3.7281   60.0524   30.6697 C   0  0  0  0  0  0  0  0  0  0  0  0
   -3.2026   58.8227   30.1460 C   0  0  0  0  0  0  0  0  0  0  0  0
   -1.7945   58.5960   30.0537 C   0  0  0  0  0  0  0  0  0  0  0  0
   -5.2277   60.2303   30.7374 C   0  0  0  0  0  0  0  0  0  0  0  0
   -5.6656   61.3515   31.1250 O   0  0  0  0  0  0  0  0  0  0  0  0
   -5.9923   59.0986   30.5064 O   0  0  0  0  0  0  0  0  0  0  0  0
   -7.2806   59.5018   29.9833 C   0  0  0  0  0  0  0  0  0  0  0  0
   -3.2342   62.2031   31.7826 N   0  0  0  0  0  0  0  0  0  0  0  0
   -0.7884   61.3916   31.5791 H   0  0  0  0  0  0  0  0  0  0  0  0
   -3.8347   58.1108   29.8397 H   0  0  0  0  0  0  0  0  0  0  0  0
   -1.4288   57.7723   29.6205 H   0  0  0  0  0  0  0  0  0  0  0  0
   -7.8400   58.6906   29.8132 H   0  0  0  0  0  0  0  0  0  0  0  0
   -7.7406   60.0908   30.6477 H   0  0  0  0  0  0  0  0  0  0  0  0
   -7.1508   60.0027   29.1275 H   0  0  0  0  0  0  0  0  0  0  0  0
   -4.2063   62.4345   31.8212 H   0  0  0  0  0  0  0  0  0  0  0  0
   -2.5556   62.8293   32.1665 H   0  0  0  0  0  0  0  0  0  0  0  0
  2  1  1  0  0  0  0
  3  2  2  0  0  0  0
  4  3  1  0  0  0  0
  5  4  2  0  0  0  0
  6  5  1  0  0  0  0
  7  6  2  0  0  0  0
  7  2  1  0  0  0  0
  8  5  1  0  0  0  0
  9  8  2  0  0  0  0
 10  8  1  0  0  0  0
 11 10  1  0  0  0  0
 12  4  1  0  0  0  0
  3 13  1  0  0  0  0
  6 14  1  0  0  0  0
  7 15  1  0  0  0  0
 11 16  1  0  0  0  0
 11 17  1  0  0  0  0
 11 18  1  0  0  0  0
 12 19  1  0  0  0  0
 12 20  1  0  0  0  0
M  END
> <BIOSOLVEIT.HYDE_ESTIMATED_AFFINITY_LOWER_BOUNDARY [nM]>
205.154157

> <BIOSOLVEIT.HYDE_ESTIMATED_AFFINITY_UPPER_BOUNDARY [nM]>
20383.278418

> <BIOSOLVEIT.HYDE_LIGAND_EFFICIENCY range: ++, +, 0, -, -->
++

> <BIOSOLVEIT.HYDE_LIGAND_LIPOPHILIC_EFFICIENCY range: ++, +, 0, -, -->
0

> <BIOSOLVEIT.INTER_CLASH range: red, yellow, green>
green

> <BIOSOLVEIT.INTRA_CLASH range: red, yellow, green>
green

> <BIOSOLVEIT.LOGP>
1.7088

> <BIOSOLVEIT.MOLECULAR WEIGHT>
185.609

> <BIOSOLVEIT.MOLECULE_CHECKSUM>
LTMyLjQ3NDc7Mi43MDYyMw==

> <BIOSOLVEIT.TORSION_QUALITY range: red, yellow, green, not rotatable>
yellow

> <BIOSOLVEIT.TPSA>
52.32

$$$$
