1FPU_PRC_3
     RDKit          3D

 29 32  0  0  0  0  0  0  0  0999 V2000
   -7.2004   66.4629   29.9944 C   0  0  0  0  0  0  0  0  0  0  0  0
   -5.8918   66.9109   30.6251 C   0  0  0  0  0  0  0  0  0  0  0  0
   -5.3566   68.1399   30.2541 C   0  0  0  0  0  0  0  0  0  0  0  0
   -4.1606   68.5756   30.8153 C   0  0  0  0  0  0  0  0  0  0  0  0
   -3.5113   67.7716   31.7464 C   0  0  0  0  0  0  0  0  0  0  0  0
   -2.2739   68.2124   32.3327 N   0  0  0  0  0  0  0  0  0  0  0  0
   -2.0401   69.5564   32.7865 C   0  0  0  0  0  0  0  0  0  0  0  0
   -3.0048   70.2477   33.2155 O   0  0  0  0  0  0  0  0  0  0  0  0
   -0.6708   70.1253   32.8052 C   0  0  0  0  0  0  0  0  0  0  0  0
    0.2764   69.6576   31.9005 C   0  0  0  0  0  0  0  0  0  0  0  0
    1.5590   70.1942   31.9206 C   0  0  0  0  0  0  0  0  0  0  0  0
    1.8538   71.1862   32.8498 C   0  0  0  0  0  0  0  0  0  0  0  0
    0.9231   71.6209   33.7123 N   0  0  0  0  0  0  0  0  0  0  0  0
   -0.3212   71.1197   33.7130 C   0  0  0  0  0  0  0  0  0  0  0  0
   -4.0402   66.5412   32.1225 C   0  0  0  0  0  0  0  0  0  0  0  0
   -5.2367   66.1119   31.5569 C   0  0  0  0  0  0  0  0  0  0  0  0
   -5.7816   64.8759   31.9257 N   0  0  0  0  0  0  0  0  0  0  0  0
   -5.1755   63.6319   31.5559 C   0  0  0  0  0  0  0  0  0  0  0  0
   -3.8544   63.5977   31.3271 N   0  0  0  0  0  0  0  0  0  0  0  0
   -3.2334   62.4615   30.9780 C   0  0  0  0  0  0  0  0  0  0  0  0
   -3.9708   61.2890   30.8489 C   0  0  0  0  0  0  0  0  0  0  0  0
   -5.3400   61.3343   31.0880 C   0  0  0  0  0  0  0  0  0  0  0  0
   -6.1171   60.1149   30.9551 C   0  0  0  0  0  0  0  0  0  0  0  0
   -5.4600   58.8980   30.8075 C   0  0  0  0  0  0  0  0  0  0  0  0
   -6.2078   57.7325   30.6816 C   0  0  0  0  0  0  0  0  0  0  0  0
   -7.5955   57.8227   30.7075 C   0  0  0  0  0  0  0  0  0  0  0  0
   -8.2062   59.0082   30.8509 N   0  0  0  0  0  0  0  0  0  0  0  0
   -7.5076   60.1468   30.9746 C   0  0  0  0  0  0  0  0  0  0  0  0
   -5.8973   62.5061   31.4340 N   0  0  0  0  0  0  0  0  0  0  0  0
  1  2  1  0
  2  3  2  0
  3  4  1  0
  4  5  2  0
  5  6  1  0
  6  7  1  0
  7  8  2  0
  7  9  1  0
  9 10  2  0
 10 11  1  0
 11 12  2  0
 12 13  1  0
 13 14  2  0
  5 15  1  0
 15 16  2  0
 16 17  1  0
 17 18  1  0
 18 19  2  0
 19 20  1  0
 20 21  2  0
 21 22  1  0
 22 23  1  0
 23 24  2  0
 24 25  1  0
 25 26  2  0
 26 27  1  0
 27 28  2  0
 22 29  2  0
 16  2  1  0
 29 18  1  0
 14  9  1  0
 28 23  1  0
M  END
>  <BIOSOLVEIT.HYDE_ESTIMATED_AFFINITY_LOWER_BOUNDARY [nM]>  (1) 
2156994.475595

>  <BIOSOLVEIT.HYDE_ESTIMATED_AFFINITY_UPPER_BOUNDARY [nM]>  (1) 
214310154.311035

>  <BIOSOLVEIT.HYDE_LIGAND_EFFICIENCY range: ++, +, 0, -, -->  (1) 
--

>  <BIOSOLVEIT.HYDE_LIGAND_LIPOPHILIC_EFFICIENCY range: ++, +, 0, -, -->  (1) 
--

>  <BIOSOLVEIT.INTER_CLASH range: red, yellow, green>  (1) 
red

>  <BIOSOLVEIT.INTRA_CLASH range: red, yellow, green>  (1) 
green

>  <BIOSOLVEIT.LOGP>  (1) 
4.23792

>  <BIOSOLVEIT.MOLECULAR WEIGHT>  (1) 
382.425

>  <BIOSOLVEIT.MOLECULE_CHECKSUM>  (1) 
LTkuNTE4NDE7MC4zMjgyMjE=

>  <BIOSOLVEIT.TORSION_QUALITY range: red, yellow, green, not rotatable>  (1) 
yellow

>  <BIOSOLVEIT.TPSA>  (1) 
92.69

$$$$
6HD6_FYH_3
     RDKit          3D

 27 29  0  0  0  0  0  0  0  0999 V2000
   -3.3442   67.1748   30.5009 O   0  0  0  0  0  0  0  0  0  0  0  0
   -2.5388   67.1634   31.4725 C   0  0  0  0  0  0  0  0  0  0  0  0
   -1.9203   65.9277   31.8699 N   0  0  0  0  0  0  0  0  0  0  0  0
   -2.5374   64.6382   31.7108 C   0  0  0  0  0  0  0  0  0  0  0  0
   -3.8405   64.5547   31.2304 C   0  0  0  0  0  0  0  0  0  0  0  0
   -4.4455   63.3115   31.0732 C   0  0  0  0  0  0  0  0  0  0  0  0
   -3.7329   62.1631   31.4020 C   0  0  0  0  0  0  0  0  0  0  0  0
   -4.3086   60.9516   31.2548 O   0  0  0  0  0  0  0  0  0  0  0  0
   -3.6405   59.7692   30.8201 C   0  0  0  0  0  0  0  0  0  0  0  0
   -2.6181   59.4816   31.7034 F   0  0  0  0  0  0  0  0  0  0  0  0
   -3.1006   59.9622   29.5609 F   0  0  0  0  0  0  0  0  0  0  0  0
   -4.5226   58.7040   30.7969 F   0  0  0  0  0  0  0  0  0  0  0  0
   -2.4294   62.2372   31.8839 C   0  0  0  0  0  0  0  0  0  0  0  0
   -1.8323   63.4840   32.0375 C   0  0  0  0  0  0  0  0  0  0  0  0
   -2.2033   68.4358   32.1570 C   0  0  0  0  0  0  0  0  0  0  0  0
   -3.1958   69.1440   32.8268 C   0  0  0  0  0  0  0  0  0  0  0  0
   -2.8627   70.3356   33.4631 C   0  0  0  0  0  0  0  0  0  0  0  0
   -1.5594   70.8212   33.4365 C   0  0  0  0  0  0  0  0  0  0  0  0
   -0.5825   70.0963   32.7609 C   0  0  0  0  0  0  0  0  0  0  0  0
    0.8456   70.6172   32.7255 C   0  0  0  0  0  0  0  0  0  0  0  0
    1.6376   70.1397   33.8831 N   0  0  0  0  0  0  0  0  0  0  0  0
    1.0937   70.6811   35.1373 C   0  0  0  0  0  0  0  0  0  0  0  0
    1.9240   70.1997   36.3167 C   0  0  0  0  0  0  0  0  0  0  0  0
    1.9601   68.7800   36.3518 O   0  0  0  0  0  0  0  0  0  0  0  0
    2.4833   68.2291   35.1507 C   0  0  0  0  0  0  0  0  0  0  0  0
    1.6638   68.6701   33.9476 C   0  0  0  0  0  0  0  0  0  0  0  0
   -0.8936   68.9026   32.1178 C   0  0  0  0  0  0  0  0  0  0  0  0
  1  2  2  0
  2  3  1  0
  3  4  1  0
  4  5  2  0
  5  6  1  0
  6  7  2  0
  7  8  1  0
  8  9  1  0
  9 10  1  0
  9 11  1  0
  9 12  1  0
  7 13  1  0
 13 14  2  0
  2 15  1  0
 15 16  2  0
 16 17  1  0
 17 18  2  0
 18 19  1  0
 19 20  1  0
 20 21  1  0
 21 22  1  0
 22 23  1  0
 23 24  1  0
 24 25  1  0
 25 26  1  0
 19 27  2  0
 14  4  1  0
 27 15  1  0
 26 21  1  0
M  CHG  1  21   1
M  END
>  <BIOSOLVEIT.HYDE_ESTIMATED_AFFINITY_LOWER_BOUNDARY [nM]>  (2) 
441.855480

>  <BIOSOLVEIT.HYDE_ESTIMATED_AFFINITY_UPPER_BOUNDARY [nM]>  (2) 
43900.954442

>  <BIOSOLVEIT.HYDE_LIGAND_EFFICIENCY range: ++, +, 0, -, -->  (2) 
-

>  <BIOSOLVEIT.HYDE_LIGAND_LIPOPHILIC_EFFICIENCY range: ++, +, 0, -, -->  (2) 
-

>  <BIOSOLVEIT.INTER_CLASH range: red, yellow, green>  (2) 
green

>  <BIOSOLVEIT.INTRA_CLASH range: red, yellow, green>  (2) 
yellow

>  <BIOSOLVEIT.LOGP>  (2) 
2.2526

>  <BIOSOLVEIT.MOLECULAR WEIGHT>  (2) 
381.372

>  <BIOSOLVEIT.MOLECULE_CHECKSUM>  (2) 
LTMwLjU3Mjg7MS4xMzIzMw==

>  <BIOSOLVEIT.TORSION_QUALITY range: red, yellow, green, not rotatable>  (2) 
red

>  <BIOSOLVEIT.TPSA>  (2) 
52

$$$$
3MS9_MS9_3
     RDKit          3D

 12 12  0  0  0  0  0  0  0  0999 V2000
   -7.5073   59.4044   30.0580 C   0  0  0  0  0  0  0  0  0  0  0  0
   -6.0882   59.3096   30.0667 O   0  0  0  0  0  0  0  0  0  0  0  0
   -5.2700   60.2803   30.6538 C   0  0  0  0  0  0  0  0  0  0  0  0
   -5.7858   61.2875   31.2130 O   0  0  0  0  0  0  0  0  0  0  0  0
   -3.8306   60.1053   30.6739 C   0  0  0  0  0  0  0  0  0  0  0  0
   -3.2943   58.9381   30.1389 C   0  0  0  0  0  0  0  0  0  0  0  0
   -1.9174   58.7396   30.1426 C   0  0  0  0  0  0  0  0  0  0  0  0
   -1.0869   59.7155   30.6845 C   0  0  0  0  0  0  0  0  0  0  0  0
    0.6759   59.4666   30.6922 Cl  0  0  0  0  0  0  0  0  0  0  0  0
   -1.6164   60.8846   31.2212 C   0  0  0  0  0  0  0  0  0  0  0  0
   -2.9943   61.0776   31.2145 C   0  0  0  0  0  0  0  0  0  0  0  0
   -3.5091   62.2606   31.7587 N   0  0  0  0  0  0  0  0  0  0  0  0
  1  2  1  0
  2  3  1  0
  3  4  2  0
  3  5  1  0
  5  6  2  0
  6  7  1  0
  7  8  2  0
  8  9  1  0
  8 10  1  0
 10 11  2  0
 11 12  1  0
 11  5  1  0
M  END
>  <BIOSOLVEIT.HYDE_ESTIMATED_AFFINITY_LOWER_BOUNDARY [nM]>  (3) 
3333.159556

>  <BIOSOLVEIT.HYDE_ESTIMATED_AFFINITY_UPPER_BOUNDARY [nM]>  (3) 
331169.109056

>  <BIOSOLVEIT.HYDE_LIGAND_EFFICIENCY range: ++, +, 0, -, -->  (3) 
++

>  <BIOSOLVEIT.HYDE_LIGAND_LIPOPHILIC_EFFICIENCY range: ++, +, 0, -, -->  (3) 
-

>  <BIOSOLVEIT.INTER_CLASH range: red, yellow, green>  (3) 
green

>  <BIOSOLVEIT.INTRA_CLASH range: red, yellow, green>  (3) 
green

>  <BIOSOLVEIT.LOGP>  (3) 
1.7088

>  <BIOSOLVEIT.MOLECULAR WEIGHT>  (3) 
185.609

>  <BIOSOLVEIT.MOLECULE_CHECKSUM>  (3) 
LTI1LjU2MzY7Mi4xMzAz

>  <BIOSOLVEIT.TORSION_QUALITY range: red, yellow, green, not rotatable>  (3) 
green

>  <BIOSOLVEIT.TPSA>  (3) 
52.32

$$$$
3K5V_STJ_3
     RDKit          3D

 27 29  0  0  0  0  0  0  0  0999 V2000
    0.4170   71.7842   27.9843 N   0  0  0  0  0  0  0  0  0  0  0  0
   -0.0887   72.6371   29.0151 C   0  0  0  0  0  0  0  0  0  0  0  0
    0.5695   73.6653   29.3310 O   0  0  0  0  0  0  0  0  0  0  0  0
   -1.3705   72.3462   29.7036 C   0  0  0  0  0  0  0  0  0  0  0  0
   -2.0597   73.3704   30.3449 C   0  0  0  0  0  0  0  0  0  0  0  0
   -3.2599   73.0788   30.9851 C   0  0  0  0  0  0  0  0  0  0  0  0
   -3.7729   71.7860   30.9905 C   0  0  0  0  0  0  0  0  0  0  0  0
   -3.0671   70.7770   30.3424 C   0  0  0  0  0  0  0  0  0  0  0  0
   -3.5929   69.4251   30.3413 C   0  0  0  0  0  0  0  0  0  0  0  0
   -3.0935   68.5038   31.2561 C   0  0  0  0  0  0  0  0  0  0  0  0
   -3.6046   67.2102   31.2464 C   0  0  0  0  0  0  0  0  0  0  0  0
   -3.1085   66.2739   32.1627 N   0  0  0  0  0  0  0  0  0  0  0  0
   -3.0710   64.8566   31.9242 C   0  0  0  0  0  0  0  0  0  0  0  0
   -1.9597   64.1215   32.3249 C   0  0  0  0  0  0  0  0  0  0  0  0
   -1.9147   62.7494   32.0983 C   0  0  0  0  0  0  0  0  0  0  0  0
   -2.9894   62.1295   31.4693 C   0  0  0  0  0  0  0  0  0  0  0  0
   -2.9576   60.7995   31.2431 O   0  0  0  0  0  0  0  0  0  0  0  0
   -1.7753   60.0078   31.1495 C   0  0  0  0  0  0  0  0  0  0  0  0
   -1.0567   60.0826   32.3293 F   0  0  0  0  0  0  0  0  0  0  0  0
   -2.1334   58.6921   30.9290 F   0  0  0  0  0  0  0  0  0  0  0  0
   -0.9941   60.4402   30.0929 F   0  0  0  0  0  0  0  0  0  0  0  0
   -4.1047   62.8568   31.0646 C   0  0  0  0  0  0  0  0  0  0  0  0
   -4.1413   64.2279   31.2954 C   0  0  0  0  0  0  0  0  0  0  0  0
   -4.5597   66.8911   30.3596 N   0  0  0  0  0  0  0  0  0  0  0  0
   -5.0317   67.7906   29.4834 C   0  0  0  0  0  0  0  0  0  0  0  0
   -4.5481   69.0419   29.4809 N   0  0  0  0  0  0  0  0  0  0  0  0
   -1.8650   71.0462   29.6961 C   0  0  0  0  0  0  0  0  0  0  0  0
  1  2  1  0
  2  3  2  0
  2  4  1  0
  4  5  2  0
  5  6  1  0
  6  7  2  0
  7  8  1  0
  8  9  1  0
  9 10  2  0
 10 11  1  0
 11 12  1  0
 12 13  1  0
 13 14  2  0
 14 15  1  0
 15 16  2  0
 16 17  1  0
 17 18  1  0
 18 19  1  0
 18 20  1  0
 18 21  1  0
 16 22  1  0
 22 23  2  0
 11 24  2  0
 24 25  1  0
 25 26  2  0
  8 27  2  0
 27  4  1  0
 26  9  1  0
 23 13  1  0
M  END
>  <BIOSOLVEIT.HYDE_ESTIMATED_AFFINITY_LOWER_BOUNDARY [nM]>  (4) 
1605.841841

>  <BIOSOLVEIT.HYDE_ESTIMATED_AFFINITY_UPPER_BOUNDARY [nM]>  (4) 
159549.881435

>  <BIOSOLVEIT.HYDE_LIGAND_EFFICIENCY range: ++, +, 0, -, -->  (4) 
-

>  <BIOSOLVEIT.HYDE_LIGAND_LIPOPHILIC_EFFICIENCY range: ++, +, 0, -, -->  (4) 
--

>  <BIOSOLVEIT.INTER_CLASH range: red, yellow, green>  (4) 
green

>  <BIOSOLVEIT.INTRA_CLASH range: red, yellow, green>  (4) 
yellow

>  <BIOSOLVEIT.LOGP>  (4) 
3.8847

>  <BIOSOLVEIT.MOLECULAR WEIGHT>  (4) 
374.321

>  <BIOSOLVEIT.MOLECULE_CHECKSUM>  (4) 
LTI3LjM3Mzk7MS4wMTM4NQ==

>  <BIOSOLVEIT.TORSION_QUALITY range: red, yellow, green, not rotatable>  (4) 
red

>  <BIOSOLVEIT.TPSA>  (4) 
90.13

$$$$
