1FPU_PRC_3
     RDKit          3D

 29 32  0  0  0  0  0  0  0  0999 V2000
   -3.8007    8.8322   22.1342 C   0  0  0  0  0  0  0  0  0  0  0  0
   -3.2112    8.1823   23.3756 C   0  0  0  0  0  0  0  0  0  0  0  0
   -3.9825    8.1265   24.5318 C   0  0  0  0  0  0  0  0  0  0  0  0
   -3.4690    7.5372   25.6826 C   0  0  0  0  0  0  0  0  0  0  0  0
   -2.1829    7.0079   25.6622 C   0  0  0  0  0  0  0  0  0  0  0  0
   -1.6423    6.3968   26.8463 N   0  0  0  0  0  0  0  0  0  0  0  0
   -1.1999    5.0274   26.9113 C   0  0  0  0  0  0  0  0  0  0  0  0
   -1.2767    4.2931   25.8890 O   0  0  0  0  0  0  0  0  0  0  0  0
   -0.6429    4.4562   28.1617 C   0  0  0  0  0  0  0  0  0  0  0  0
   -1.1381    4.8840   29.3889 C   0  0  0  0  0  0  0  0  0  0  0  0
   -0.6140    4.3455   30.5588 C   0  0  0  0  0  0  0  0  0  0  0  0
    0.3936    3.3916   30.4625 C   0  0  0  0  0  0  0  0  0  0  0  0
    0.8550    2.9951   29.2670 N   0  0  0  0  0  0  0  0  0  0  0  0
    0.3658    3.4991   28.1240 C   0  0  0  0  0  0  0  0  0  0  0  0
   -1.4053    7.0599   24.5098 C   0  0  0  0  0  0  0  0  0  0  0  0
   -1.9254    7.6508   23.3626 C   0  0  0  0  0  0  0  0  0  0  0  0
   -1.1550    7.7105   22.1950 N   0  0  0  0  0  0  0  0  0  0  0  0
   -1.2885    6.7847   21.1076 C   0  0  0  0  0  0  0  0  0  0  0  0
   -2.3457    5.9596   21.0854 N   0  0  0  0  0  0  0  0  0  0  0  0
   -2.5216    5.0737   20.0940 C   0  0  0  0  0  0  0  0  0  0  0  0
   -1.5903    5.0046   19.0630 C   0  0  0  0  0  0  0  0  0  0  0  0
   -0.4974    5.8639   19.0948 C   0  0  0  0  0  0  0  0  0  0  0  0
    0.4795    5.7980   18.0226 C   0  0  0  0  0  0  0  0  0  0  0  0
    1.3067    4.6847   17.9187 C   0  0  0  0  0  0  0  0  0  0  0  0
    2.2402    4.6250   16.8899 C   0  0  0  0  0  0  0  0  0  0  0  0
    2.3164    5.6862   15.9942 C   0  0  0  0  0  0  0  0  0  0  0  0
    1.5077    6.7495   16.1153 N   0  0  0  0  0  0  0  0  0  0  0  0
    0.5987    6.8309   17.0986 C   0  0  0  0  0  0  0  0  0  0  0  0
   -0.3829    6.7266   20.1177 N   0  0  0  0  0  0  0  0  0  0  0  0
  1  2  1  0
  2  3  2  0
  3  4  1  0
  4  5  2  0
  5  6  1  0
  6  7  1  0
  7  8  2  0
  7  9  1  0
  9 10  2  0
 10 11  1  0
 11 12  2  0
 12 13  1  0
 13 14  2  0
  5 15  1  0
 15 16  2  0
 16 17  1  0
 17 18  1  0
 18 19  2  0
 19 20  1  0
 20 21  2  0
 21 22  1  0
 22 23  1  0
 23 24  2  0
 24 25  1  0
 25 26  2  0
 26 27  1  0
 27 28  2  0
 22 29  2  0
 16  2  1  0
 29 18  1  0
 14  9  1  0
 28 23  1  0
M  END
>  <BIOSOLVEIT.HYDE_ESTIMATED_AFFINITY_LOWER_BOUNDARY [nM]>  (1) 
7549450.068427

>  <BIOSOLVEIT.HYDE_ESTIMATED_AFFINITY_UPPER_BOUNDARY [nM]>  (1) 
750082500.179561

>  <BIOSOLVEIT.HYDE_LIGAND_EFFICIENCY range: ++, +, 0, -, -->  (1) 
--

>  <BIOSOLVEIT.HYDE_LIGAND_LIPOPHILIC_EFFICIENCY range: ++, +, 0, -, -->  (1) 
--

>  <BIOSOLVEIT.INTER_CLASH range: red, yellow, green>  (1) 
yellow

>  <BIOSOLVEIT.INTRA_CLASH range: red, yellow, green>  (1) 
green

>  <BIOSOLVEIT.LOGP>  (1) 
4.23792

>  <BIOSOLVEIT.MOLECULAR WEIGHT>  (1) 
382.425

>  <BIOSOLVEIT.MOLECULE_CHECKSUM>  (1) 
LTYuNDEyODg7MC4yMjExMzQ=

>  <BIOSOLVEIT.TORSION_QUALITY range: red, yellow, green, not rotatable>  (1) 
red

>  <BIOSOLVEIT.TPSA>  (1) 
92.69

$$$$
6HD6_FYH_2
     RDKit          3D

 27 29  0  0  0  0  0  0  0  0999 V2000
   -2.5286    8.0543   25.7262 O   0  0  0  0  0  0  0  0  0  0  0  0
   -1.8880    6.9687   25.7816 C   0  0  0  0  0  0  0  0  0  0  0  0
   -1.7932    6.1380   24.6121 N   0  0  0  0  0  0  0  0  0  0  0  0
   -1.8078    6.6475   23.2671 C   0  0  0  0  0  0  0  0  0  0  0  0
   -1.8722    5.7606   22.1971 C   0  0  0  0  0  0  0  0  0  0  0  0
   -1.8869    6.2443   20.8924 C   0  0  0  0  0  0  0  0  0  0  0  0
   -1.8361    7.6175   20.6769 C   0  0  0  0  0  0  0  0  0  0  0  0
   -1.8490    8.0992   19.4165 O   0  0  0  0  0  0  0  0  0  0  0  0
   -2.9419    8.7831   18.8069 C   0  0  0  0  0  0  0  0  0  0  0  0
   -3.2452    9.9287   19.5204 F   0  0  0  0  0  0  0  0  0  0  0  0
   -4.0461    7.9531   18.8070 F   0  0  0  0  0  0  0  0  0  0  0  0
   -2.6301    9.1100   17.4994 F   0  0  0  0  0  0  0  0  0  0  0  0
   -1.7711    8.5120   21.7410 C   0  0  0  0  0  0  0  0  0  0  0  0
   -1.7571    8.0197   23.0419 C   0  0  0  0  0  0  0  0  0  0  0  0
   -1.2987    6.5519   27.0390 C   0  0  0  0  0  0  0  0  0  0  0  0
   -1.2718    7.4315   28.1163 C   0  0  0  0  0  0  0  0  0  0  0  0
   -0.7022    7.0141   29.3150 C   0  0  0  0  0  0  0  0  0  0  0  0
   -0.1643    5.7379   29.4457 C   0  0  0  0  0  0  0  0  0  0  0  0
   -0.2022    4.8744   28.3554 C   0  0  0  0  0  0  0  0  0  0  0  0
    0.3791    3.4847   28.4861 C   0  0  0  0  0  0  0  0  0  0  0  0
   -0.3634    2.6610   29.4589 N   0  0  0  0  0  0  0  0  0  0  0  0
   -1.7673    3.0867   29.5588 C   0  0  0  0  0  0  0  0  0  0  0  0
   -2.5063    2.2287   30.5735 C   0  0  0  0  0  0  0  0  0  0  0  0
   -1.8711    2.3026   31.8423 O   0  0  0  0  0  0  0  0  0  0  0  0
   -0.5121    1.8920   31.7891 C   0  0  0  0  0  0  0  0  0  0  0  0
    0.2565    2.7424   30.7898 C   0  0  0  0  0  0  0  0  0  0  0  0
   -0.7668    5.2711   27.1475 C   0  0  0  0  0  0  0  0  0  0  0  0
  1  2  2  0
  2  3  1  0
  3  4  1  0
  4  5  2  0
  5  6  1  0
  6  7  2  0
  7  8  1  0
  8  9  1  0
  9 10  1  0
  9 11  1  0
  9 12  1  0
  7 13  1  0
 13 14  2  0
  2 15  1  0
 15 16  2  0
 16 17  1  0
 17 18  2  0
 18 19  1  0
 19 20  1  0
 20 21  1  0
 21 22  1  0
 22 23  1  0
 23 24  1  0
 24 25  1  0
 25 26  1  0
 19 27  2  0
 14  4  1  0
 27 15  1  0
 26 21  1  0
M  CHG  1  21   1
M  END
>  <BIOSOLVEIT.HYDE_ESTIMATED_AFFINITY_LOWER_BOUNDARY [nM]>  (2) 
1995470.055122

>  <BIOSOLVEIT.HYDE_ESTIMATED_AFFINITY_UPPER_BOUNDARY [nM]>  (2) 
198261748.129020

>  <BIOSOLVEIT.HYDE_LIGAND_EFFICIENCY range: ++, +, 0, -, -->  (2) 
--

>  <BIOSOLVEIT.HYDE_LIGAND_LIPOPHILIC_EFFICIENCY range: ++, +, 0, -, -->  (2) 
--

>  <BIOSOLVEIT.INTER_CLASH range: red, yellow, green>  (2) 
green

>  <BIOSOLVEIT.INTRA_CLASH range: red, yellow, green>  (2) 
yellow

>  <BIOSOLVEIT.LOGP>  (2) 
2.2526

>  <BIOSOLVEIT.MOLECULAR WEIGHT>  (2) 
381.372

>  <BIOSOLVEIT.MOLECULE_CHECKSUM>  (2) 
LTkuNzExMzc7MC4zNTk2OA==

>  <BIOSOLVEIT.TORSION_QUALITY range: red, yellow, green, not rotatable>  (2) 
green

>  <BIOSOLVEIT.TPSA>  (2) 
52

$$$$
6HD4_FYW_3
     RDKit          3D

 32 35  0  0  0  0  0  0  0  0999 V2000
   -4.3774    9.7529   25.2770 O   0  0  0  0  0  0  0  0  0  0  0  0
   -3.4466    9.0313   24.8281 C   0  0  0  0  0  0  0  0  0  0  0  0
   -3.0298    9.2101   23.4646 N   0  0  0  0  0  0  0  0  0  0  0  0
   -2.4894    8.1649   22.6364 C   0  0  0  0  0  0  0  0  0  0  0  0
   -3.1718    7.7764   21.4879 C   0  0  0  0  0  0  0  0  0  0  0  0
   -2.6568    6.7667   20.6806 C   0  0  0  0  0  0  0  0  0  0  0  0
   -1.4590    6.1565   21.0379 C   0  0  0  0  0  0  0  0  0  0  0  0
   -0.9493    5.1755   20.2640 O   0  0  0  0  0  0  0  0  0  0  0  0
   -1.4404    4.8016   18.9785 C   0  0  0  0  0  0  0  0  0  0  0  0
   -1.3676    5.8756   18.1093 F   0  0  0  0  0  0  0  0  0  0  0  0
   -2.7609    4.4145   19.0985 F   0  0  0  0  0  0  0  0  0  0  0  0
   -0.7082    3.7396   18.4789 F   0  0  0  0  0  0  0  0  0  0  0  0
   -0.7699    6.5382   22.1852 C   0  0  0  0  0  0  0  0  0  0  0  0
   -1.2919    7.5487   22.9859 C   0  0  0  0  0  0  0  0  0  0  0  0
   -2.8005    8.0778   25.7100 C   0  0  0  0  0  0  0  0  0  0  0  0
   -2.7107    6.7275   25.3869 C   0  0  0  0  0  0  0  0  0  0  0  0
   -2.1091    5.8588   26.2133 N   0  0  0  0  0  0  0  0  0  0  0  0
   -1.5737    6.2555   27.3776 C   0  0  0  0  0  0  0  0  0  0  0  0
   -0.9533    5.3221   28.2166 N   0  0  0  0  0  0  0  0  0  0  0  0
   -0.9049    5.3658   29.6801 C   0  0  0  0  0  0  0  0  0  0  0  0
   -0.9373    3.9092   30.0972 C   0  0  0  0  0  0  0  0  0  0  0  0
   -0.5010    3.1142   28.8806 C   0  0  0  0  0  0  0  0  0  0  0  0
   -1.5646    2.2712   28.5112 O   0  0  0  0  0  0  0  0  0  0  0  0
   -0.2081    4.1360   27.7991 C   0  0  0  0  0  0  0  0  0  0  0  0
   -1.6352    7.5943   27.7517 C   0  0  0  0  0  0  0  0  0  0  0  0
   -1.0680    8.0601   29.0024 C   0  0  0  0  0  0  0  0  0  0  0  0
    0.2901    8.3388   29.1110 C   0  0  0  0  0  0  0  0  0  0  0  0
    0.7942    8.7708   30.2758 N   0  0  0  0  0  0  0  0  0  0  0  0
    0.0108    8.9415   31.3511 C   0  0  0  0  0  0  0  0  0  0  0  0
   -1.3023    8.6805   31.2722 N   0  0  0  0  0  0  0  0  0  0  0  0
   -1.8571    8.2477   30.1319 C   0  0  0  0  0  0  0  0  0  0  0  0
   -2.2534    8.5147   26.9118 C   0  0  0  0  0  0  0  0  0  0  0  0
  1  2  2  0
  2  3  1  0
  3  4  1  0
  4  5  2  0
  5  6  1  0
  6  7  2  0
  7  8  1  0
  8  9  1  0
  9 10  1  0
  9 11  1  0
  9 12  1  0
  7 13  1  0
 13 14  2  0
  2 15  1  0
 15 16  2  0
 16 17  1  0
 17 18  2  0
 18 19  1  0
 19 20  1  0
 20 21  1  0
 21 22  1  0
 22 23  1  0
 22 24  1  0
 18 25  1  0
 25 26  1  0
 26 27  2  0
 27 28  1  0
 28 29  2  0
 29 30  1  0
 30 31  2  0
 25 32  2  0
 14  4  1  0
 32 15  1  0
 24 19  1  0
 31 26  1  0
M  END
>  <BIOSOLVEIT.HYDE_ESTIMATED_AFFINITY_LOWER_BOUNDARY [nM]>  (3) 
11435976.097756

>  <BIOSOLVEIT.HYDE_ESTIMATED_AFFINITY_UPPER_BOUNDARY [nM]>  (3) 
1136231840.153864

>  <BIOSOLVEIT.HYDE_LIGAND_EFFICIENCY range: ++, +, 0, -, -->  (3) 
--

>  <BIOSOLVEIT.HYDE_LIGAND_LIPOPHILIC_EFFICIENCY range: ++, +, 0, -, -->  (3) 
--

>  <BIOSOLVEIT.INTER_CLASH range: red, yellow, green>  (3) 
yellow

>  <BIOSOLVEIT.INTRA_CLASH range: red, yellow, green>  (3) 
red

>  <BIOSOLVEIT.LOGP>  (3) 
3.2605

>  <BIOSOLVEIT.MOLECULAR WEIGHT>  (3) 
445.399

>  <BIOSOLVEIT.MOLECULE_CHECKSUM>  (3) 
LTUuMzgzMzk7MC4xNjgyMzE=

>  <BIOSOLVEIT.TORSION_QUALITY range: red, yellow, green, not rotatable>  (3) 
red

>  <BIOSOLVEIT.TPSA>  (3) 
100.47

$$$$
2QOH_P3Y_3
     RDKit          3D

 28 31  0  0  0  0  0  0  0  0999 V2000
   -0.9815   10.8415   18.6761 C   0  0  0  0  0  0  0  0  0  0  0  0
   -1.6784   10.0169   19.6037 O   0  0  0  0  0  0  0  0  0  0  0  0
   -1.6401    8.6670   19.6121 C   0  0  0  0  0  0  0  0  0  0  0  0
   -0.8526    8.0172   18.6676 C   0  0  0  0  0  0  0  0  0  0  0  0
   -0.7919    6.6273   18.6500 C   0  0  0  0  0  0  0  0  0  0  0  0
   -1.5191    5.8874   19.5767 C   0  0  0  0  0  0  0  0  0  0  0  0
   -2.3065    6.5370   20.5219 C   0  0  0  0  0  0  0  0  0  0  0  0
   -2.3676    7.9267   20.5393 C   0  0  0  0  0  0  0  0  0  0  0  0
   -3.1894    8.6044   21.5247 C   0  0  0  0  0  0  0  0  0  0  0  0
   -4.0819    9.5981   21.2502 C   0  0  0  0  0  0  0  0  0  0  0  0
   -4.6451    9.9648   22.4365 N   0  0  0  0  0  0  0  0  0  0  0  0
   -4.1112    9.2113   23.4547 C   0  0  0  0  0  0  0  0  0  0  0  0
   -4.3027    9.1616   24.7831 N   0  0  0  0  0  0  0  0  0  0  0  0
   -3.6356    8.3025   25.5704 C   0  0  0  0  0  0  0  0  0  0  0  0
   -2.7022    7.4101   25.0497 C   0  0  0  0  0  0  0  0  0  0  0  0
   -1.9629    6.4651   25.8637 C   0  0  0  0  0  0  0  0  0  0  0  0
   -1.7320    5.1627   25.4337 C   0  0  0  0  0  0  0  0  0  0  0  0
   -1.0455    4.3022   26.2005 N   0  0  0  0  0  0  0  0  0  0  0  0
   -0.5615    4.6649   27.3977 C   0  0  0  0  0  0  0  0  0  0  0  0
   -0.7634    5.9550   27.8766 C   0  0  0  0  0  0  0  0  0  0  0  0
   -0.2386    6.3753   29.1934 C   0  0  0  0  0  0  0  0  0  0  0  0
    0.9750    6.7095   29.2846 O   0  0  0  0  0  0  0  0  0  0  0  0
   -1.0778    6.4213   30.3653 N   0  0  0  0  0  0  0  0  0  0  0  0
   -1.6726    5.1785   30.8633 C   0  0  0  0  0  0  0  0  0  0  0  0
   -1.2059    7.6601   31.1409 C   0  0  0  0  0  0  0  0  0  0  0  0
   -1.4719    6.8667   27.1014 C   0  0  0  0  0  0  0  0  0  0  0  0
   -2.4781    7.4350   23.6794 C   0  0  0  0  0  0  0  0  0  0  0  0
   -3.1974    8.3446   22.9148 C   0  0  0  0  0  0  0  0  0  0  0  0
  1  2  1  0
  2  3  1  0
  3  4  2  0
  4  5  1  0
  5  6  2  0
  6  7  1  0
  7  8  2  0
  8  9  1  0
  9 10  2  0
 10 11  1  0
 11 12  1  0
 12 13  2  0
 13 14  1  0
 14 15  2  0
 15 16  1  0
 16 17  2  0
 17 18  1  0
 18 19  2  0
 19 20  1  0
 20 21  1  0
 21 22  2  0
 21 23  1  0
 23 24  1  0
 23 25  1  0
 20 26  2  0
 15 27  1  0
 27 28  2  0
  8  3  1  0
 28  9  1  0
 28 12  1  0
 26 16  1  0
M  END
>  <BIOSOLVEIT.HYDE_ESTIMATED_AFFINITY_LOWER_BOUNDARY [nM]>  (4) 
0.114308

>  <BIOSOLVEIT.HYDE_ESTIMATED_AFFINITY_UPPER_BOUNDARY [nM]>  (4) 
11.357201

>  <BIOSOLVEIT.HYDE_LIGAND_EFFICIENCY range: ++, +, 0, -, -->  (4) 
+

>  <BIOSOLVEIT.HYDE_LIGAND_LIPOPHILIC_EFFICIENCY range: ++, +, 0, -, -->  (4) 
0

>  <BIOSOLVEIT.INTER_CLASH range: red, yellow, green>  (4) 
green

>  <BIOSOLVEIT.INTRA_CLASH range: red, yellow, green>  (4) 
green

>  <BIOSOLVEIT.LOGP>  (4) 
4.0023

>  <BIOSOLVEIT.MOLECULAR WEIGHT>  (4) 
372.426

>  <BIOSOLVEIT.MOLECULE_CHECKSUM>  (4) 
LTUxLjA0ODY7MS44MjMxNg==

>  <BIOSOLVEIT.TORSION_QUALITY range: red, yellow, green, not rotatable>  (4) 
yellow

>  <BIOSOLVEIT.TPSA>  (4) 
71.11

$$$$
3MS9_MS9_2
     RDKit          3D

 12 12  0  0  0  0  0  0  0  0999 V2000
   -2.5438    7.9616   27.2545 C   0  0  0  0  0  0  0  0  0  0  0  0
   -2.4544    7.8291   25.8413 O   0  0  0  0  0  0  0  0  0  0  0  0
   -3.3083    8.5053   24.9638 C   0  0  0  0  0  0  0  0  0  0  0  0
   -4.2079    9.2656   25.4175 O   0  0  0  0  0  0  0  0  0  0  0  0
   -3.1270    8.3817   23.5303 C   0  0  0  0  0  0  0  0  0  0  0  0
   -2.3496    7.3346   23.0453 C   0  0  0  0  0  0  0  0  0  0  0  0
   -2.1564    7.1880   21.6755 C   0  0  0  0  0  0  0  0  0  0  0  0
   -2.7455    8.0952   20.8004 C   0  0  0  0  0  0  0  0  0  0  0  0
   -2.5013    7.9125   19.0464 Cl  0  0  0  0  0  0  0  0  0  0  0  0
   -3.5237    9.1445   21.2785 C   0  0  0  0  0  0  0  0  0  0  0  0
   -3.7136    9.2858   22.6495 C   0  0  0  0  0  0  0  0  0  0  0  0
   -4.5001   10.3478   23.1124 N   0  0  0  0  0  0  0  0  0  0  0  0
  1  2  1  0
  2  3  1  0
  3  4  2  0
  3  5  1  0
  5  6  2  0
  6  7  1  0
  7  8  2  0
  8  9  1  0
  8 10  1  0
 10 11  2  0
 11 12  1  0
 11  5  1  0
M  END
>  <BIOSOLVEIT.HYDE_ESTIMATED_AFFINITY_LOWER_BOUNDARY [nM]>  (5) 
36643.801654

>  <BIOSOLVEIT.HYDE_ESTIMATED_AFFINITY_UPPER_BOUNDARY [nM]>  (5) 
3640778.349669

>  <BIOSOLVEIT.HYDE_LIGAND_EFFICIENCY range: ++, +, 0, -, -->  (5) 
0

>  <BIOSOLVEIT.HYDE_LIGAND_LIPOPHILIC_EFFICIENCY range: ++, +, 0, -, -->  (5) 
--

>  <BIOSOLVEIT.INTER_CLASH range: red, yellow, green>  (5) 
green

>  <BIOSOLVEIT.INTRA_CLASH range: red, yellow, green>  (5) 
green

>  <BIOSOLVEIT.LOGP>  (5) 
1.7088

>  <BIOSOLVEIT.MOLECULAR WEIGHT>  (5) 
185.609

>  <BIOSOLVEIT.MOLECULE_CHECKSUM>  (5) 
LTE5LjYyMDc7MS42MzUwNg==

>  <BIOSOLVEIT.TORSION_QUALITY range: red, yellow, green, not rotatable>  (5) 
green

>  <BIOSOLVEIT.TPSA>  (5) 
52.32

$$$$
3K5V_STJ_1
     RDKit          3D

 27 29  0  0  0  0  0  0  0  0999 V2000
   -1.2269    7.6872   16.4967 N   0  0  0  0  0  0  0  0  0  0  0  0
   -2.2039    7.6981   17.5412 C   0  0  0  0  0  0  0  0  0  0  0  0
   -3.4173    7.8537   17.2369 O   0  0  0  0  0  0  0  0  0  0  0  0
   -1.8302    7.5195   18.9306 C   0  0  0  0  0  0  0  0  0  0  0  0
   -0.6860    6.7964   19.2522 C   0  0  0  0  0  0  0  0  0  0  0  0
   -0.3432    6.6354   20.5909 C   0  0  0  0  0  0  0  0  0  0  0  0
   -1.1254    7.1847   21.6014 C   0  0  0  0  0  0  0  0  0  0  0  0
   -2.2653    7.9045   21.2569 C   0  0  0  0  0  0  0  0  0  0  0  0
   -3.0882    8.4821   22.3024 C   0  0  0  0  0  0  0  0  0  0  0  0
   -3.1264    7.8687   23.5502 C   0  0  0  0  0  0  0  0  0  0  0  0
   -3.9191    8.4309   24.5457 C   0  0  0  0  0  0  0  0  0  0  0  0
   -3.9656    7.8211   25.8059 N   0  0  0  0  0  0  0  0  0  0  0  0
   -2.8016    7.4366   26.5571 C   0  0  0  0  0  0  0  0  0  0  0  0
   -2.5766    7.9973   27.8105 C   0  0  0  0  0  0  0  0  0  0  0  0
   -1.4528    7.6311   28.5448 C   0  0  0  0  0  0  0  0  0  0  0  0
   -0.5649    6.7036   28.0099 C   0  0  0  0  0  0  0  0  0  0  0  0
    0.5291    6.3407   28.7117 O   0  0  0  0  0  0  0  0  0  0  0  0
    0.5888    5.2663   29.6473 C   0  0  0  0  0  0  0  0  0  0  0  0
    0.2798    4.0715   29.0218 F   0  0  0  0  0  0  0  0  0  0  0  0
   -0.3323    5.4944   30.6512 F   0  0  0  0  0  0  0  0  0  0  0  0
    1.8510    5.1923   30.2087 F   0  0  0  0  0  0  0  0  0  0  0  0
   -0.7816    6.1381   26.7569 C   0  0  0  0  0  0  0  0  0  0  0  0
   -1.9077    6.5096   26.0301 C   0  0  0  0  0  0  0  0  0  0  0  0
   -4.6192    9.5428   24.2740 N   0  0  0  0  0  0  0  0  0  0  0  0
   -4.5721   10.1233   23.0655 C   0  0  0  0  0  0  0  0  0  0  0  0
   -3.8124    9.5922   22.0957 N   0  0  0  0  0  0  0  0  0  0  0  0
   -2.6268    8.0777   19.9248 C   0  0  0  0  0  0  0  0  0  0  0  0
  1  2  1  0
  2  3  2  0
  2  4  1  0
  4  5  2  0
  5  6  1  0
  6  7  2  0
  7  8  1  0
  8  9  1  0
  9 10  2  0
 10 11  1  0
 11 12  1  0
 12 13  1  0
 13 14  2  0
 14 15  1  0
 15 16  2  0
 16 17  1  0
 17 18  1  0
 18 19  1  0
 18 20  1  0
 18 21  1  0
 16 22  1  0
 22 23  2  0
 11 24  2  0
 24 25  1  0
 25 26  2  0
  8 27  2  0
 27  4  1  0
 26  9  1  0
 23 13  1  0
M  END
>  <BIOSOLVEIT.HYDE_ESTIMATED_AFFINITY_LOWER_BOUNDARY [nM]>  (6) 
650192.343622

>  <BIOSOLVEIT.HYDE_ESTIMATED_AFFINITY_UPPER_BOUNDARY [nM]>  (6) 
64600453.580187

>  <BIOSOLVEIT.HYDE_LIGAND_EFFICIENCY range: ++, +, 0, -, -->  (6) 
--

>  <BIOSOLVEIT.HYDE_LIGAND_LIPOPHILIC_EFFICIENCY range: ++, +, 0, -, -->  (6) 
--

>  <BIOSOLVEIT.INTER_CLASH range: red, yellow, green>  (6) 
green

>  <BIOSOLVEIT.INTRA_CLASH range: red, yellow, green>  (6) 
green

>  <BIOSOLVEIT.LOGP>  (6) 
3.8847

>  <BIOSOLVEIT.MOLECULAR WEIGHT>  (6) 
374.321

>  <BIOSOLVEIT.MOLECULE_CHECKSUM>  (6) 
LTEyLjQ5MTI7MC40NjI2Mzc=

>  <BIOSOLVEIT.TORSION_QUALITY range: red, yellow, green, not rotatable>  (6) 
yellow

>  <BIOSOLVEIT.TPSA>  (6) 
90.13

$$$$
3K5V_STI_3
     RDKit          3D

 37 41  0  0  0  0  0  0  0  0999 V2000
   -3.7273   10.1594   24.1478 C   0  0  0  0  0  0  0  0  0  0  0  0
   -3.1379    8.8517   24.6508 C   0  0  0  0  0  0  0  0  0  0  0  0
   -3.6461    8.2947   25.8197 C   0  0  0  0  0  0  0  0  0  0  0  0
   -3.1262    7.0984   26.3034 C   0  0  0  0  0  0  0  0  0  0  0  0
   -2.0985    6.4706   25.6074 C   0  0  0  0  0  0  0  0  0  0  0  0
   -1.5530    5.2321   26.0992 N   0  0  0  0  0  0  0  0  0  0  0  0
   -1.2060    4.9816   27.4709 C   0  0  0  0  0  0  0  0  0  0  0  0
   -1.2895    3.8043   27.9122 O   0  0  0  0  0  0  0  0  0  0  0  0
   -0.7137    6.0572   28.3644 C   0  0  0  0  0  0  0  0  0  0  0  0
   -0.6816    7.3684   27.9003 C   0  0  0  0  0  0  0  0  0  0  0  0
   -0.2233    8.3885   28.7277 C   0  0  0  0  0  0  0  0  0  0  0  0
    0.1989    8.0770   30.0168 C   0  0  0  0  0  0  0  0  0  0  0  0
    0.7030    9.1815   30.9318 C   0  0  0  0  0  0  0  0  0  0  0  0
   -0.1891    9.3844   32.1036 N   0  0  0  0  0  0  0  0  0  0  0  0
    0.3801    8.6229   33.2271 C   0  0  0  0  0  0  0  0  0  0  0  0
   -0.2699    9.0124   34.5473 C   0  0  0  0  0  0  0  0  0  0  0  0
   -1.4936    9.8032   34.3350 N   0  0  0  0  0  0  0  0  0  0  0  0
   -2.1008   10.1594   35.6256 C   0  0  0  0  0  0  0  0  0  0  0  0
   -1.1812   11.0562   33.6321 C   0  0  0  0  0  0  0  0  0  0  0  0
   -0.2389   10.8104   32.4634 C   0  0  0  0  0  0  0  0  0  0  0  0
    0.1688    6.7676   30.4850 C   0  0  0  0  0  0  0  0  0  0  0  0
   -0.2905    5.7509   29.6535 C   0  0  0  0  0  0  0  0  0  0  0  0
   -1.5850    7.0213   24.4377 C   0  0  0  0  0  0  0  0  0  0  0  0
   -2.1097    8.2179   23.9599 C   0  0  0  0  0  0  0  0  0  0  0  0
   -1.6034    8.7845   22.7839 N   0  0  0  0  0  0  0  0  0  0  0  0
   -1.8302    8.2427   21.4755 C   0  0  0  0  0  0  0  0  0  0  0  0
   -2.2749    6.9823   21.3644 N   0  0  0  0  0  0  0  0  0  0  0  0
   -2.5042    6.4239   20.1668 C   0  0  0  0  0  0  0  0  0  0  0  0
   -2.2779    7.1634   19.0107 C   0  0  0  0  0  0  0  0  0  0  0  0
   -1.8167    8.4694   19.1359 C   0  0  0  0  0  0  0  0  0  0  0  0
   -1.5775    9.2484   17.9340 C   0  0  0  0  0  0  0  0  0  0  0  0
   -1.9367   10.5918   17.9071 C   0  0  0  0  0  0  0  0  0  0  0  0
   -1.7052   11.3345   16.7547 C   0  0  0  0  0  0  0  0  0  0  0  0
   -1.1191   10.7059   15.6611 C   0  0  0  0  0  0  0  0  0  0  0  0
   -0.7816    9.4088   15.7112 N   0  0  0  0  0  0  0  0  0  0  0  0
   -0.9942    8.6707   16.8111 C   0  0  0  0  0  0  0  0  0  0  0  0
   -1.6080    8.9661   20.3661 N   0  0  0  0  0  0  0  0  0  0  0  0
  1  2  1  0
  2  3  2  0
  3  4  1  0
  4  5  2  0
  5  6  1  0
  6  7  1  0
  7  8  2  0
  7  9  1  0
  9 10  2  0
 10 11  1  0
 11 12  2  0
 12 13  1  0
 13 14  1  0
 14 15  1  0
 15 16  1  0
 16 17  1  0
 17 18  1  0
 17 19  1  0
 19 20  1  0
 12 21  1  0
 21 22  2  0
  5 23  1  0
 23 24  2  0
 24 25  1  0
 25 26  1  0
 26 27  2  0
 27 28  1  0
 28 29  2  0
 29 30  1  0
 30 31  1  0
 31 32  2  0
 32 33  1  0
 33 34  2  0
 34 35  1  0
 35 36  2  0
 30 37  2  0
 24  2  1  0
 37 26  1  0
 22  9  1  0
 36 31  1  0
 20 14  1  0
M  CHG  3  14   1  17   1  35   1
M  END
>  <BIOSOLVEIT.HYDE_ESTIMATED_AFFINITY_LOWER_BOUNDARY [nM]>  (7) 
26600376.742974

>  <BIOSOLVEIT.HYDE_ESTIMATED_AFFINITY_UPPER_BOUNDARY [nM]>  (7) 
2642904703.288636

>  <BIOSOLVEIT.HYDE_LIGAND_EFFICIENCY range: ++, +, 0, -, -->  (7) 
--

>  <BIOSOLVEIT.HYDE_LIGAND_LIPOPHILIC_EFFICIENCY range: ++, +, 0, -, -->  (7) 
--

>  <BIOSOLVEIT.INTER_CLASH range: red, yellow, green>  (7) 
green

>  <BIOSOLVEIT.INTRA_CLASH range: red, yellow, green>  (7) 
red

>  <BIOSOLVEIT.LOGP>  (7) 
1.17522

>  <BIOSOLVEIT.MOLECULAR WEIGHT>  (7) 
496.636

>  <BIOSOLVEIT.MOLECULE_CHECKSUM>  (7) 
LTMuMjkwNzU7MC4wODg5Mzkz

>  <BIOSOLVEIT.TORSION_QUALITY range: red, yellow, green, not rotatable>  (7) 
yellow

>  <BIOSOLVEIT.TPSA>  (7) 
89.93

$$$$
