1FPU_PRC_2
     RDKit          3D

 29 32  0  0  0  0  0  0  0  0999 V2000
   21.9334   43.3078   53.0552 C   0  0  0  0  0  0  0  0  0  0  0  0
   22.1882   43.9618   54.4036 C   0  0  0  0  0  0  0  0  0  0  0  0
   21.1016   44.4227   55.1395 C   0  0  0  0  0  0  0  0  0  0  0  0
   21.3048   45.0251   56.3770 C   0  0  0  0  0  0  0  0  0  0  0  0
   22.6002   45.1591   56.8657 C   0  0  0  0  0  0  0  0  0  0  0  0
   22.8158   45.7640   58.1098 N   0  0  0  0  0  0  0  0  0  0  0  0
   23.3533   45.0791   59.2520 C   0  0  0  0  0  0  0  0  0  0  0  0
   24.1567   44.1217   59.0804 O   0  0  0  0  0  0  0  0  0  0  0  0
   23.0026   45.5053   60.6287 C   0  0  0  0  0  0  0  0  0  0  0  0
   24.0158   45.7203   61.5569 C   0  0  0  0  0  0  0  0  0  0  0  0
   23.6830   46.1206   62.8462 C   0  0  0  0  0  0  0  0  0  0  0  0
   22.3407   46.2938   63.1667 C   0  0  0  0  0  0  0  0  0  0  0  0
   21.3814   46.0801   62.2540 N   0  0  0  0  0  0  0  0  0  0  0  0
   21.6764   45.6938   61.0036 C   0  0  0  0  0  0  0  0  0  0  0  0
   23.6920   44.7007   56.1356 C   0  0  0  0  0  0  0  0  0  0  0  0
   23.4812   44.0995   54.8988 C   0  0  0  0  0  0  0  0  0  0  0  0
   24.6020   43.6191   54.1305 N   0  0  0  0  0  0  0  0  0  0  0  0
   25.5191   44.4566   53.4827 C   0  0  0  0  0  0  0  0  0  0  0  0
   25.9681   44.1085   52.2678 N   0  0  0  0  0  0  0  0  0  0  0  0
   26.8468   44.8714   51.6010 C   0  0  0  0  0  0  0  0  0  0  0  0
   27.3060   46.0512   52.1772 C   0  0  0  0  0  0  0  0  0  0  0  0
   26.8351   46.4037   53.4373 C   0  0  0  0  0  0  0  0  0  0  0  0
   27.3097   47.6335   54.0461 C   0  0  0  0  0  0  0  0  0  0  0  0
   28.3686   48.3210   53.4627 C   0  0  0  0  0  0  0  0  0  0  0  0
   28.8195   49.4988   54.0482 C   0  0  0  0  0  0  0  0  0  0  0  0
   28.1933   49.9529   55.2040 C   0  0  0  0  0  0  0  0  0  0  0  0
   27.1738   49.2721   55.7482 N   0  0  0  0  0  0  0  0  0  0  0  0
   26.7200   48.1336   55.2025 C   0  0  0  0  0  0  0  0  0  0  0  0
   25.9559   45.5932   54.0487 N   0  0  0  0  0  0  0  0  0  0  0  0
  1  2  1  0
  2  3  2  0
  3  4  1  0
  4  5  2  0
  5  6  1  0
  6  7  1  0
  7  8  2  0
  7  9  1  0
  9 10  2  0
 10 11  1  0
 11 12  2  0
 12 13  1  0
 13 14  2  0
  5 15  1  0
 15 16  2  0
 16 17  1  0
 17 18  1  0
 18 19  2  0
 19 20  1  0
 20 21  2  0
 21 22  1  0
 22 23  1  0
 23 24  2  0
 24 25  1  0
 25 26  2  0
 26 27  1  0
 27 28  2  0
 22 29  2  0
 16  2  1  0
 29 18  1  0
 14  9  1  0
 28 23  1  0
M  END
>  <BIOSOLVEIT.HYDE_ESTIMATED_AFFINITY_LOWER_BOUNDARY [nM]>  (1) 
85138.924236

>  <BIOSOLVEIT.HYDE_ESTIMATED_AFFINITY_UPPER_BOUNDARY [nM]>  (1) 
8459055.504001

>  <BIOSOLVEIT.HYDE_LIGAND_EFFICIENCY range: ++, +, 0, -, -->  (1) 
--

>  <BIOSOLVEIT.HYDE_LIGAND_LIPOPHILIC_EFFICIENCY range: ++, +, 0, -, -->  (1) 
--

>  <BIOSOLVEIT.INTER_CLASH range: red, yellow, green>  (1) 
green

>  <BIOSOLVEIT.INTRA_CLASH range: red, yellow, green>  (1) 
green

>  <BIOSOLVEIT.LOGP>  (1) 
4.23792

>  <BIOSOLVEIT.MOLECULAR WEIGHT>  (1) 
382.425

>  <BIOSOLVEIT.MOLECULE_CHECKSUM>  (1) 
LTE3LjUzMDk7MC42MDQ1MTM=

>  <BIOSOLVEIT.TORSION_QUALITY range: red, yellow, green, not rotatable>  (1) 
red

>  <BIOSOLVEIT.TPSA>  (1) 
92.69

$$$$
6HD6_FYH_3
     RDKit          3D

 27 29  0  0  0  0  0  0  0  0999 V2000
   21.6999   43.5688   53.3649 O   0  0  0  0  0  0  0  0  0  0  0  0
   20.8670   43.5920   54.3128 C   0  0  0  0  0  0  0  0  0  0  0  0
   19.7616   42.6724   54.3117 N   0  0  0  0  0  0  0  0  0  0  0  0
   19.1502   42.1600   53.1149 C   0  0  0  0  0  0  0  0  0  0  0  0
   19.9496   41.6244   52.1101 C   0  0  0  0  0  0  0  0  0  0  0  0
   19.3669   41.1262   50.9488 C   0  0  0  0  0  0  0  0  0  0  0  0
   17.9838   41.1725   50.8095 C   0  0  0  0  0  0  0  0  0  0  0  0
   17.4065   40.6933   49.6879 O   0  0  0  0  0  0  0  0  0  0  0  0
   17.0607   39.3292   49.4572 C   0  0  0  0  0  0  0  0  0  0  0  0
   16.1596   38.9257   50.4233 F   0  0  0  0  0  0  0  0  0  0  0  0
   16.4724   39.1902   48.2129 F   0  0  0  0  0  0  0  0  0  0  0  0
   18.1880   38.5314   49.5381 F   0  0  0  0  0  0  0  0  0  0  0  0
   17.1763   41.7070   51.8091 C   0  0  0  0  0  0  0  0  0  0  0  0
   17.7673   42.2024   52.9667 C   0  0  0  0  0  0  0  0  0  0  0  0
   21.0709   44.5342   55.4402 C   0  0  0  0  0  0  0  0  0  0  0  0
   21.4574   45.8458   55.1849 C   0  0  0  0  0  0  0  0  0  0  0  0
   21.6439   46.7154   56.2547 C   0  0  0  0  0  0  0  0  0  0  0  0
   21.4498   46.2901   57.5650 C   0  0  0  0  0  0  0  0  0  0  0  0
   21.0629   44.9738   57.7972 C   0  0  0  0  0  0  0  0  0  0  0  0
   20.8473   44.4980   59.2253 C   0  0  0  0  0  0  0  0  0  0  0  0
   19.4525   44.7174   59.6743 N   0  0  0  0  0  0  0  0  0  0  0  0
   19.4057   45.2453   61.0468 C   0  0  0  0  0  0  0  0  0  0  0  0
   17.9736   45.3943   61.5350 C   0  0  0  0  0  0  0  0  0  0  0  0
   17.0336   45.0108   60.5375 O   0  0  0  0  0  0  0  0  0  0  0  0
   17.2448   43.6914   60.0488 C   0  0  0  0  0  0  0  0  0  0  0  0
   18.6790   43.4683   59.5973 C   0  0  0  0  0  0  0  0  0  0  0  0
   20.8708   44.0876   56.7422 C   0  0  0  0  0  0  0  0  0  0  0  0
  1  2  2  0
  2  3  1  0
  3  4  1  0
  4  5  2  0
  5  6  1  0
  6  7  2  0
  7  8  1  0
  8  9  1  0
  9 10  1  0
  9 11  1  0
  9 12  1  0
  7 13  1  0
 13 14  2  0
  2 15  1  0
 15 16  2  0
 16 17  1  0
 17 18  2  0
 18 19  1  0
 19 20  1  0
 20 21  1  0
 21 22  1  0
 22 23  1  0
 23 24  1  0
 24 25  1  0
 25 26  1  0
 19 27  2  0
 14  4  1  0
 27 15  1  0
 26 21  1  0
M  CHG  1  21   1
M  END
>  <BIOSOLVEIT.HYDE_ESTIMATED_AFFINITY_LOWER_BOUNDARY [nM]>  (2) 
5.355705

>  <BIOSOLVEIT.HYDE_ESTIMATED_AFFINITY_UPPER_BOUNDARY [nM]>  (2) 
532.120916

>  <BIOSOLVEIT.HYDE_LIGAND_EFFICIENCY range: ++, +, 0, -, -->  (2) 
0

>  <BIOSOLVEIT.HYDE_LIGAND_LIPOPHILIC_EFFICIENCY range: ++, +, 0, -, -->  (2) 
+

>  <BIOSOLVEIT.INTER_CLASH range: red, yellow, green>  (2) 
green

>  <BIOSOLVEIT.INTRA_CLASH range: red, yellow, green>  (2) 
green

>  <BIOSOLVEIT.LOGP>  (2) 
2.2526

>  <BIOSOLVEIT.MOLECULAR WEIGHT>  (2) 
381.372

>  <BIOSOLVEIT.MOLECULE_CHECKSUM>  (2) 
LTQxLjUxMjsxLjUzNzQ4

>  <BIOSOLVEIT.TORSION_QUALITY range: red, yellow, green, not rotatable>  (2) 
red

>  <BIOSOLVEIT.TPSA>  (2) 
52

$$$$
6HD4_FYW_1
     RDKit          3D

 32 35  0  0  0  0  0  0  0  0999 V2000
   22.8225   43.3199   54.1956 O   0  0  0  0  0  0  0  0  0  0  0  0
   21.8986   43.7245   54.9541 C   0  0  0  0  0  0  0  0  0  0  0  0
   20.5841   43.1532   54.8426 N   0  0  0  0  0  0  0  0  0  0  0  0
   20.0389   42.6359   53.6161 C   0  0  0  0  0  0  0  0  0  0  0  0
   19.2782   41.4712   53.6397 C   0  0  0  0  0  0  0  0  0  0  0  0
   18.7466   40.9634   52.4582 C   0  0  0  0  0  0  0  0  0  0  0  0
   18.9867   41.6330   51.2630 C   0  0  0  0  0  0  0  0  0  0  0  0
   18.4774   41.1505   50.1101 O   0  0  0  0  0  0  0  0  0  0  0  0
   17.8030   39.9025   49.9661 C   0  0  0  0  0  0  0  0  0  0  0  0
   16.6798   39.8713   50.7732 F   0  0  0  0  0  0  0  0  0  0  0  0
   18.6513   38.8611   50.2976 F   0  0  0  0  0  0  0  0  0  0  0  0
   17.4100   39.7548   48.6501 F   0  0  0  0  0  0  0  0  0  0  0  0
   19.7469   42.7983   51.2298 C   0  0  0  0  0  0  0  0  0  0  0  0
   20.2741   43.2988   52.4156 C   0  0  0  0  0  0  0  0  0  0  0  0
   22.1970   44.7473   55.9857 C   0  0  0  0  0  0  0  0  0  0  0  0
   21.2056   45.5755   56.5022 C   0  0  0  0  0  0  0  0  0  0  0  0
   21.4921   46.4953   57.4358 N   0  0  0  0  0  0  0  0  0  0  0  0
   22.7390   46.6522   57.9052 C   0  0  0  0  0  0  0  0  0  0  0  0
   23.0029   47.6223   58.8798 N   0  0  0  0  0  0  0  0  0  0  0  0
   23.0822   47.3741   60.3238 C   0  0  0  0  0  0  0  0  0  0  0  0
   24.1979   48.3078   60.7427 C   0  0  0  0  0  0  0  0  0  0  0  0
   24.0283   49.5321   59.8551 C   0  0  0  0  0  0  0  0  0  0  0  0
   23.2684   50.5360   60.5122 O   0  0  0  0  0  0  0  0  0  0  0  0
   23.2514   49.0417   58.6467 C   0  0  0  0  0  0  0  0  0  0  0  0
   23.7699   45.8511   57.4237 C   0  0  0  0  0  0  0  0  0  0  0  0
   25.1299   45.9919   57.9070 C   0  0  0  0  0  0  0  0  0  0  0  0
   25.7000   45.0247   58.7276 C   0  0  0  0  0  0  0  0  0  0  0  0
   26.9599   45.1725   59.1617 N   0  0  0  0  0  0  0  0  0  0  0  0
   27.6910   46.2439   58.8200 C   0  0  0  0  0  0  0  0  0  0  0  0
   27.1646   47.1903   58.0291 N   0  0  0  0  0  0  0  0  0  0  0  0
   25.9110   47.0908   57.5669 C   0  0  0  0  0  0  0  0  0  0  0  0
   23.4983   44.8900   56.4557 C   0  0  0  0  0  0  0  0  0  0  0  0
  1  2  2  0
  2  3  1  0
  3  4  1  0
  4  5  2  0
  5  6  1  0
  6  7  2  0
  7  8  1  0
  8  9  1  0
  9 10  1  0
  9 11  1  0
  9 12  1  0
  7 13  1  0
 13 14  2  0
  2 15  1  0
 15 16  2  0
 16 17  1  0
 17 18  2  0
 18 19  1  0
 19 20  1  0
 20 21  1  0
 21 22  1  0
 22 23  1  0
 22 24  1  0
 18 25  1  0
 25 26  1  0
 26 27  2  0
 27 28  1  0
 28 29  2  0
 29 30  1  0
 30 31  2  0
 25 32  2  0
 14  4  1  0
 32 15  1  0
 24 19  1  0
 31 26  1  0
M  END
>  <BIOSOLVEIT.HYDE_ESTIMATED_AFFINITY_LOWER_BOUNDARY [nM]>  (3) 
191492.191529

>  <BIOSOLVEIT.HYDE_ESTIMATED_AFFINITY_UPPER_BOUNDARY [nM]>  (3) 
19025881.419891

>  <BIOSOLVEIT.HYDE_LIGAND_EFFICIENCY range: ++, +, 0, -, -->  (3) 
--

>  <BIOSOLVEIT.HYDE_LIGAND_LIPOPHILIC_EFFICIENCY range: ++, +, 0, -, -->  (3) 
--

>  <BIOSOLVEIT.INTER_CLASH range: red, yellow, green>  (3) 
green

>  <BIOSOLVEIT.INTRA_CLASH range: red, yellow, green>  (3) 
green

>  <BIOSOLVEIT.LOGP>  (3) 
3.2605

>  <BIOSOLVEIT.MOLECULAR WEIGHT>  (3) 
445.399

>  <BIOSOLVEIT.MOLECULE_CHECKSUM>  (3) 
LTE1LjUyMTU7MC40ODUwNDc=

>  <BIOSOLVEIT.TORSION_QUALITY range: red, yellow, green, not rotatable>  (3) 
yellow

>  <BIOSOLVEIT.TPSA>  (3) 
100.47

$$$$
2QOH_P3Y_1
     RDKit          3D

 28 31  0  0  0  0  0  0  0  0999 V2000
   23.1936   48.5151   58.3035 C   0  0  0  0  0  0  0  0  0  0  0  0
   22.5109   47.3124   58.6414 O   0  0  0  0  0  0  0  0  0  0  0  0
   22.5933   46.6932   59.8387 C   0  0  0  0  0  0  0  0  0  0  0  0
   23.2416   47.3453   60.8824 C   0  0  0  0  0  0  0  0  0  0  0  0
   23.3434   46.7340   62.1281 C   0  0  0  0  0  0  0  0  0  0  0  0
   22.7974   45.4706   62.3298 C   0  0  0  0  0  0  0  0  0  0  0  0
   22.1486   44.8182   61.2863 C   0  0  0  0  0  0  0  0  0  0  0  0
   22.0470   45.4293   60.0405 C   0  0  0  0  0  0  0  0  0  0  0  0
   21.3710   44.7487   58.9519 C   0  0  0  0  0  0  0  0  0  0  0  0
   20.1028   44.2507   59.0069 C   0  0  0  0  0  0  0  0  0  0  0  0
   19.8423   43.6923   57.7907 N   0  0  0  0  0  0  0  0  0  0  0  0
   20.9380   43.8330   56.9727 C   0  0  0  0  0  0  0  0  0  0  0  0
   21.2155   43.4748   55.7084 N   0  0  0  0  0  0  0  0  0  0  0  0
   22.3966   43.7468   55.1305 C   0  0  0  0  0  0  0  0  0  0  0  0
   23.4054   44.4196   55.8147 C   0  0  0  0  0  0  0  0  0  0  0  0
   24.6930   44.7353   55.2273 C   0  0  0  0  0  0  0  0  0  0  0  0
   25.8416   44.8303   56.0060 C   0  0  0  0  0  0  0  0  0  0  0  0
   27.0244   45.1230   55.4449 N   0  0  0  0  0  0  0  0  0  0  0  0
   27.1397   45.3319   54.1248 C   0  0  0  0  0  0  0  0  0  0  0  0
   26.0235   45.2493   53.2996 C   0  0  0  0  0  0  0  0  0  0  0  0
   26.1283   45.4759   51.8424 C   0  0  0  0  0  0  0  0  0  0  0  0
   26.0353   44.4852   51.0661 O   0  0  0  0  0  0  0  0  0  0  0  0
   26.3427   46.7914   51.2924 N   0  0  0  0  0  0  0  0  0  0  0  0
   26.5500   46.9337   49.8491 C   0  0  0  0  0  0  0  0  0  0  0  0
   26.5136   47.9482   52.1781 C   0  0  0  0  0  0  0  0  0  0  0  0
   24.7851   44.9474   53.8559 C   0  0  0  0  0  0  0  0  0  0  0  0
   23.1531   44.8042   57.1251 C   0  0  0  0  0  0  0  0  0  0  0  0
   21.9133   44.4961   57.6704 C   0  0  0  0  0  0  0  0  0  0  0  0
  1  2  1  0
  2  3  1  0
  3  4  2  0
  4  5  1  0
  5  6  2  0
  6  7  1  0
  7  8  2  0
  8  9  1  0
  9 10  2  0
 10 11  1  0
 11 12  1  0
 12 13  2  0
 13 14  1  0
 14 15  2  0
 15 16  1  0
 16 17  2  0
 17 18  1  0
 18 19  2  0
 19 20  1  0
 20 21  1  0
 21 22  2  0
 21 23  1  0
 23 24  1  0
 23 25  1  0
 20 26  2  0
 15 27  1  0
 27 28  2  0
  8  3  1  0
 28  9  1  0
 28 12  1  0
 26 16  1  0
M  END
>  <BIOSOLVEIT.HYDE_ESTIMATED_AFFINITY_LOWER_BOUNDARY [nM]>  (4) 
1808774.063471

>  <BIOSOLVEIT.HYDE_ESTIMATED_AFFINITY_UPPER_BOUNDARY [nM]>  (4) 
179712397.524436

>  <BIOSOLVEIT.HYDE_LIGAND_EFFICIENCY range: ++, +, 0, -, -->  (4) 
--

>  <BIOSOLVEIT.HYDE_LIGAND_LIPOPHILIC_EFFICIENCY range: ++, +, 0, -, -->  (4) 
--

>  <BIOSOLVEIT.INTER_CLASH range: red, yellow, green>  (4) 
green

>  <BIOSOLVEIT.INTRA_CLASH range: red, yellow, green>  (4) 
green

>  <BIOSOLVEIT.LOGP>  (4) 
4.0023

>  <BIOSOLVEIT.MOLECULAR WEIGHT>  (4) 
372.426

>  <BIOSOLVEIT.MOLECULE_CHECKSUM>  (4) 
LTkuOTU0ODg7MC4zNTU1MzE=

>  <BIOSOLVEIT.TORSION_QUALITY range: red, yellow, green, not rotatable>  (4) 
green

>  <BIOSOLVEIT.TPSA>  (4) 
71.11

$$$$
3MS9_MS9_1
     RDKit          3D

 12 12  0  0  0  0  0  0  0  0999 V2000
   21.4114   45.3481   57.3340 C   0  0  0  0  0  0  0  0  0  0  0  0
   20.6334   44.6649   56.3586 O   0  0  0  0  0  0  0  0  0  0  0  0
   21.0860   44.4408   55.0538 C   0  0  0  0  0  0  0  0  0  0  0  0
   22.2117   44.8801   54.6915 O   0  0  0  0  0  0  0  0  0  0  0  0
   20.2262   43.7546   54.1088 C   0  0  0  0  0  0  0  0  0  0  0  0
   20.7779   43.3003   52.9150 C   0  0  0  0  0  0  0  0  0  0  0  0
   19.9803   42.6380   51.9874 C   0  0  0  0  0  0  0  0  0  0  0  0
   18.6319   42.4364   52.2647 C   0  0  0  0  0  0  0  0  0  0  0  0
   17.6063   41.5898   51.0811 Cl  0  0  0  0  0  0  0  0  0  0  0  0
   18.0736   42.8883   53.4561 C   0  0  0  0  0  0  0  0  0  0  0  0
   18.8766   43.5497   54.3801 C   0  0  0  0  0  0  0  0  0  0  0  0
   18.2974   43.9971   55.5739 N   0  0  0  0  0  0  0  0  0  0  0  0
  1  2  1  0
  2  3  1  0
  3  4  2  0
  3  5  1  0
  5  6  2  0
  6  7  1  0
  7  8  2  0
  8  9  1  0
  8 10  1  0
 10 11  2  0
 11 12  1  0
 11  5  1  0
M  END
>  <BIOSOLVEIT.HYDE_ESTIMATED_AFFINITY_LOWER_BOUNDARY [nM]>  (5) 
14799.146214

>  <BIOSOLVEIT.HYDE_ESTIMATED_AFFINITY_UPPER_BOUNDARY [nM]>  (5) 
1470382.675800

>  <BIOSOLVEIT.HYDE_LIGAND_EFFICIENCY range: ++, +, 0, -, -->  (5) 
+

>  <BIOSOLVEIT.HYDE_LIGAND_LIPOPHILIC_EFFICIENCY range: ++, +, 0, -, -->  (5) 
-

>  <BIOSOLVEIT.INTER_CLASH range: red, yellow, green>  (5) 
green

>  <BIOSOLVEIT.INTRA_CLASH range: red, yellow, green>  (5) 
green

>  <BIOSOLVEIT.LOGP>  (5) 
1.7088

>  <BIOSOLVEIT.MOLECULAR WEIGHT>  (5) 
185.609

>  <BIOSOLVEIT.MOLECULE_CHECKSUM>  (5) 
LTIxLjg2ODM7MS44MjIzNg==

>  <BIOSOLVEIT.TORSION_QUALITY range: red, yellow, green, not rotatable>  (5) 
green

>  <BIOSOLVEIT.TPSA>  (5) 
52.32

$$$$
3K5V_STJ_1
     RDKit          3D

 27 29  0  0  0  0  0  0  0  0999 V2000
   25.1263   46.7994   50.5185 N   0  0  0  0  0  0  0  0  0  0  0  0
   25.3795   45.7322   51.4364 C   0  0  0  0  0  0  0  0  0  0  0  0
   25.6239   44.5824   50.9798 O   0  0  0  0  0  0  0  0  0  0  0  0
   25.3432   45.9464   52.9040 C   0  0  0  0  0  0  0  0  0  0  0  0
   26.3726   46.6444   53.5272 C   0  0  0  0  0  0  0  0  0  0  0  0
   26.3215   46.8354   54.9043 C   0  0  0  0  0  0  0  0  0  0  0  0
   25.2619   46.3402   55.6571 C   0  0  0  0  0  0  0  0  0  0  0  0
   24.2429   45.6454   55.0129 C   0  0  0  0  0  0  0  0  0  0  0  0
   23.1328   45.1249   55.7879 C   0  0  0  0  0  0  0  0  0  0  0  0
   21.8686   45.0738   55.2099 C   0  0  0  0  0  0  0  0  0  0  0  0
   20.8110   44.5731   55.9622 C   0  0  0  0  0  0  0  0  0  0  0  0
   19.5335   44.5177   55.3902 N   0  0  0  0  0  0  0  0  0  0  0  0
   19.2128   43.7639   54.2087 C   0  0  0  0  0  0  0  0  0  0  0  0
   17.9738   43.1390   54.1075 C   0  0  0  0  0  0  0  0  0  0  0  0
   17.6546   42.4073   52.9677 C   0  0  0  0  0  0  0  0  0  0  0  0
   18.5867   42.3110   51.9398 C   0  0  0  0  0  0  0  0  0  0  0  0
   18.2897   41.6038   50.8295 O   0  0  0  0  0  0  0  0  0  0  0  0
   18.8241   40.3233   50.5010 C   0  0  0  0  0  0  0  0  0  0  0  0
   18.4985   39.4044   51.4827 F   0  0  0  0  0  0  0  0  0  0  0  0
   18.3335   39.9012   49.2784 F   0  0  0  0  0  0  0  0  0  0  0  0
   20.1996   40.4191   50.4198 F   0  0  0  0  0  0  0  0  0  0  0  0
   19.8287   42.9322   52.0325 C   0  0  0  0  0  0  0  0  0  0  0  0
   20.1390   43.6618   53.1753 C   0  0  0  0  0  0  0  0  0  0  0  0
   21.0407   44.1560   57.2165 N   0  0  0  0  0  0  0  0  0  0  0  0
   22.2657   44.2112   57.7606 C   0  0  0  0  0  0  0  0  0  0  0  0
   23.2952   44.6919   57.0472 N   0  0  0  0  0  0  0  0  0  0  0  0
   24.2738   45.4427   53.6369 C   0  0  0  0  0  0  0  0  0  0  0  0
  1  2  1  0
  2  3  2  0
  2  4  1  0
  4  5  2  0
  5  6  1  0
  6  7  2  0
  7  8  1  0
  8  9  1  0
  9 10  2  0
 10 11  1  0
 11 12  1  0
 12 13  1  0
 13 14  2  0
 14 15  1  0
 15 16  2  0
 16 17  1  0
 17 18  1  0
 18 19  1  0
 18 20  1  0
 18 21  1  0
 16 22  1  0
 22 23  2  0
 11 24  2  0
 24 25  1  0
 25 26  2  0
  8 27  2  0
 27  4  1  0
 26  9  1  0
 23 13  1  0
M  END
>  <BIOSOLVEIT.HYDE_ESTIMATED_AFFINITY_LOWER_BOUNDARY [nM]>  (6) 
28.972909

>  <BIOSOLVEIT.HYDE_ESTIMATED_AFFINITY_UPPER_BOUNDARY [nM]>  (6) 
2878.629765

>  <BIOSOLVEIT.HYDE_LIGAND_EFFICIENCY range: ++, +, 0, -, -->  (6) 
0

>  <BIOSOLVEIT.HYDE_LIGAND_LIPOPHILIC_EFFICIENCY range: ++, +, 0, -, -->  (6) 
-

>  <BIOSOLVEIT.INTER_CLASH range: red, yellow, green>  (6) 
green

>  <BIOSOLVEIT.INTRA_CLASH range: red, yellow, green>  (6) 
yellow

>  <BIOSOLVEIT.LOGP>  (6) 
3.8847

>  <BIOSOLVEIT.MOLECULAR WEIGHT>  (6) 
374.321

>  <BIOSOLVEIT.MOLECULE_CHECKSUM>  (6) 
LTM3LjMyNzsxLjM4MjQ4

>  <BIOSOLVEIT.TORSION_QUALITY range: red, yellow, green, not rotatable>  (6) 
yellow

>  <BIOSOLVEIT.TPSA>  (6) 
90.13

$$$$
3K5V_STI_1
     RDKit          3D

 37 41  0  0  0  0  0  0  0  0999 V2000
   24.2956   48.4936   59.9298 C   0  0  0  0  0  0  0  0  0  0  0  0
   23.4165   47.7224   58.9588 C   0  0  0  0  0  0  0  0  0  0  0  0
   22.1744   47.2719   59.3939 C   0  0  0  0  0  0  0  0  0  0  0  0
   21.3486   46.5637   58.5267 C   0  0  0  0  0  0  0  0  0  0  0  0
   21.7781   46.3139   57.2275 C   0  0  0  0  0  0  0  0  0  0  0  0
   20.9325   45.5828   56.3232 N   0  0  0  0  0  0  0  0  0  0  0  0
   21.4282   44.6808   55.3155 C   0  0  0  0  0  0  0  0  0  0  0  0
   22.6708   44.4982   55.1917 O   0  0  0  0  0  0  0  0  0  0  0  0
   20.5043   43.9483   54.4161 C   0  0  0  0  0  0  0  0  0  0  0  0
   20.9905   43.4141   53.2270 C   0  0  0  0  0  0  0  0  0  0  0  0
   20.1359   42.7232   52.3737 C   0  0  0  0  0  0  0  0  0  0  0  0
   18.7978   42.5772   52.7276 C   0  0  0  0  0  0  0  0  0  0  0  0
   17.8522   41.8255   51.8045 C   0  0  0  0  0  0  0  0  0  0  0  0
   18.1381   40.3711   51.7869 N   0  0  0  0  0  0  0  0  0  0  0  0
   16.8625   39.6423   51.7046 C   0  0  0  0  0  0  0  0  0  0  0  0
   17.0464   38.3095   50.9937 C   0  0  0  0  0  0  0  0  0  0  0  0
   17.3972   38.5152   49.5807 N   0  0  0  0  0  0  0  0  0  0  0  0
   16.2006   38.6439   48.7351 C   0  0  0  0  0  0  0  0  0  0  0  0
   18.2185   39.7219   49.4021 C   0  0  0  0  0  0  0  0  0  0  0  0
   19.0181   40.0021   50.6658 C   0  0  0  0  0  0  0  0  0  0  0  0
   18.3074   43.1099   53.9153 C   0  0  0  0  0  0  0  0  0  0  0  0
   19.1662   43.7999   54.7652 C   0  0  0  0  0  0  0  0  0  0  0  0
   23.0188   46.7612   56.7850 C   0  0  0  0  0  0  0  0  0  0  0  0
   23.8395   47.4686   57.6578 C   0  0  0  0  0  0  0  0  0  0  0  0
   25.0909   47.9253   57.2270 N   0  0  0  0  0  0  0  0  0  0  0  0
   25.9010   47.2331   56.2668 C   0  0  0  0  0  0  0  0  0  0  0  0
   26.9996   46.5905   56.6894 N   0  0  0  0  0  0  0  0  0  0  0  0
   27.7943   45.9270   55.8367 C   0  0  0  0  0  0  0  0  0  0  0  0
   27.4769   45.9014   54.4826 C   0  0  0  0  0  0  0  0  0  0  0  0
   26.3359   46.5709   54.0538 C   0  0  0  0  0  0  0  0  0  0  0  0
   25.9974   46.5492   52.6420 C   0  0  0  0  0  0  0  0  0  0  0  0
   25.4289   47.6761   52.0578 C   0  0  0  0  0  0  0  0  0  0  0  0
   25.1071   47.6518   50.7052 C   0  0  0  0  0  0  0  0  0  0  0  0
   25.3659   46.4951   49.9775 C   0  0  0  0  0  0  0  0  0  0  0  0
   25.9149   45.4208   50.5635 N   0  0  0  0  0  0  0  0  0  0  0  0
   26.2346   45.4191   51.8664 C   0  0  0  0  0  0  0  0  0  0  0  0
   25.5850   47.2153   54.9618 N   0  0  0  0  0  0  0  0  0  0  0  0
  1  2  1  0
  2  3  2  0
  3  4  1  0
  4  5  2  0
  5  6  1  0
  6  7  1  0
  7  8  2  0
  7  9  1  0
  9 10  2  0
 10 11  1  0
 11 12  2  0
 12 13  1  0
 13 14  1  0
 14 15  1  0
 15 16  1  0
 16 17  1  0
 17 18  1  0
 17 19  1  0
 19 20  1  0
 12 21  1  0
 21 22  2  0
  5 23  1  0
 23 24  2  0
 24 25  1  0
 25 26  1  0
 26 27  2  0
 27 28  1  0
 28 29  2  0
 29 30  1  0
 30 31  1  0
 31 32  2  0
 32 33  1  0
 33 34  2  0
 34 35  1  0
 35 36  2  0
 30 37  2  0
 24  2  1  0
 37 26  1  0
 22  9  1  0
 36 31  1  0
 20 14  1  0
M  CHG  2  14   1  17   1
M  END
>  <BIOSOLVEIT.HYDE_ESTIMATED_AFFINITY_LOWER_BOUNDARY [nM]>  (7) 
40.072373

>  <BIOSOLVEIT.HYDE_ESTIMATED_AFFINITY_UPPER_BOUNDARY [nM]>  (7) 
3981.427158

>  <BIOSOLVEIT.HYDE_LIGAND_EFFICIENCY range: ++, +, 0, -, -->  (7) 
-

>  <BIOSOLVEIT.HYDE_LIGAND_LIPOPHILIC_EFFICIENCY range: ++, +, 0, -, -->  (7) 
0

>  <BIOSOLVEIT.INTER_CLASH range: red, yellow, green>  (7) 
green

>  <BIOSOLVEIT.INTRA_CLASH range: red, yellow, green>  (7) 
yellow

>  <BIOSOLVEIT.LOGP>  (7) 
1.75612

>  <BIOSOLVEIT.MOLECULAR WEIGHT>  (7) 
495.628

>  <BIOSOLVEIT.MOLECULE_CHECKSUM>  (7) 
LTM2LjUyMzswLjk4NzEwOQ==

>  <BIOSOLVEIT.TORSION_QUALITY range: red, yellow, green, not rotatable>  (7) 
yellow

>  <BIOSOLVEIT.TPSA>  (7) 
88.68

$$$$
