1FPU_PRC_2
     RDKit          3D

 29 32  0  0  0  0  0  0  0  0999 V2000
   23.7583   43.3461   53.3739 C   0  0  0  0  0  0  0  0  0  0  0  0
   22.7018   43.5531   54.4469 C   0  0  0  0  0  0  0  0  0  0  0  0
   23.0718   44.1618   55.6415 C   0  0  0  0  0  0  0  0  0  0  0  0
   22.1257   44.3646   56.6412 C   0  0  0  0  0  0  0  0  0  0  0  0
   20.8135   43.9536   56.4316 C   0  0  0  0  0  0  0  0  0  0  0  0
   19.8276   44.1582   57.4583 N   0  0  0  0  0  0  0  0  0  0  0  0
   19.8442   43.4843   58.7314 C   0  0  0  0  0  0  0  0  0  0  0  0
   20.7628   42.6600   58.9946 O   0  0  0  0  0  0  0  0  0  0  0  0
   18.8025   43.7444   59.7547 C   0  0  0  0  0  0  0  0  0  0  0  0
   19.1142   43.5931   61.1016 C   0  0  0  0  0  0  0  0  0  0  0  0
   18.1351   43.8387   62.0579 C   0  0  0  0  0  0  0  0  0  0  0  0
   16.8696   44.2296   61.6334 C   0  0  0  0  0  0  0  0  0  0  0  0
   16.5931   44.3686   60.3283 N   0  0  0  0  0  0  0  0  0  0  0  0
   17.5201   44.1380   59.3865 C   0  0  0  0  0  0  0  0  0  0  0  0
   20.4356   43.3443   55.2395 C   0  0  0  0  0  0  0  0  0  0  0  0
   21.3871   43.1446   54.2444 C   0  0  0  0  0  0  0  0  0  0  0  0
   21.0220   42.5329   53.0391 N   0  0  0  0  0  0  0  0  0  0  0  0
   19.6631   42.2739   52.6600 C   0  0  0  0  0  0  0  0  0  0  0  0
   18.6999   43.0970   53.0995 N   0  0  0  0  0  0  0  0  0  0  0  0
   17.4125   42.9035   52.7772 C   0  0  0  0  0  0  0  0  0  0  0  0
   17.0626   41.8269   51.9689 C   0  0  0  0  0  0  0  0  0  0  0  0
   18.0683   40.9786   51.5181 C   0  0  0  0  0  0  0  0  0  0  0  0
   17.7115   39.8523   50.6742 C   0  0  0  0  0  0  0  0  0  0  0  0
   17.0820   40.0831   49.4556 C   0  0  0  0  0  0  0  0  0  0  0  0
   16.7429   39.0019   48.6498 C   0  0  0  0  0  0  0  0  0  0  0  0
   17.0460   37.7183   49.0916 C   0  0  0  0  0  0  0  0  0  0  0  0
   17.6535   37.5211   50.2711 N   0  0  0  0  0  0  0  0  0  0  0  0
   17.9912   38.5473   51.0664 C   0  0  0  0  0  0  0  0  0  0  0  0
   19.3369   41.2311   51.8793 N   0  0  0  0  0  0  0  0  0  0  0  0
  1  2  1  0
  2  3  2  0
  3  4  1  0
  4  5  2  0
  5  6  1  0
  6  7  1  0
  7  8  2  0
  7  9  1  0
  9 10  2  0
 10 11  1  0
 11 12  2  0
 12 13  1  0
 13 14  2  0
  5 15  1  0
 15 16  2  0
 16 17  1  0
 17 18  1  0
 18 19  2  0
 19 20  1  0
 20 21  2  0
 21 22  1  0
 22 23  1  0
 23 24  2  0
 24 25  1  0
 25 26  2  0
 26 27  1  0
 27 28  2  0
 22 29  2  0
 16  2  1  0
 29 18  1  0
 14  9  1  0
 28 23  1  0
M  END
>  <BIOSOLVEIT.HYDE_ESTIMATED_AFFINITY_LOWER_BOUNDARY [nM]>  (1) 
50490.483178

>  <BIOSOLVEIT.HYDE_ESTIMATED_AFFINITY_UPPER_BOUNDARY [nM]>  (1) 
5016528.027143

>  <BIOSOLVEIT.HYDE_LIGAND_EFFICIENCY range: ++, +, 0, -, -->  (1) 
--

>  <BIOSOLVEIT.HYDE_LIGAND_LIPOPHILIC_EFFICIENCY range: ++, +, 0, -, -->  (1) 
--

>  <BIOSOLVEIT.INTER_CLASH range: red, yellow, green>  (1) 
green

>  <BIOSOLVEIT.INTRA_CLASH range: red, yellow, green>  (1) 
yellow

>  <BIOSOLVEIT.LOGP>  (1) 
4.23792

>  <BIOSOLVEIT.MOLECULAR WEIGHT>  (1) 
382.425

>  <BIOSOLVEIT.MOLECULE_CHECKSUM>  (1) 
LTE4LjgyNjE7MC42NDkxNzc=

>  <BIOSOLVEIT.TORSION_QUALITY range: red, yellow, green, not rotatable>  (1) 
red

>  <BIOSOLVEIT.TPSA>  (1) 
92.69

$$$$
6HD6_FYH_2
     RDKit          3D

 27 29  0  0  0  0  0  0  0  0999 V2000
   21.1311   45.0073   58.8707 O   0  0  0  0  0  0  0  0  0  0  0  0
   21.3457   44.9038   57.6331 C   0  0  0  0  0  0  0  0  0  0  0  0
   20.2239   44.8186   56.7403 N   0  0  0  0  0  0  0  0  0  0  0  0
   20.2391   44.1344   55.5197 C   0  0  0  0  0  0  0  0  0  0  0  0
   21.2120   43.1676   55.2859 C   0  0  0  0  0  0  0  0  0  0  0  0
   21.2348   42.4822   54.0752 C   0  0  0  0  0  0  0  0  0  0  0  0
   20.2777   42.7771   53.1099 C   0  0  0  0  0  0  0  0  0  0  0  0
   20.2899   42.0931   51.8835 O   0  0  0  0  0  0  0  0  0  0  0  0
   19.2282   41.2850   51.3804 C   0  0  0  0  0  0  0  0  0  0  0  0
   18.9695   40.2418   52.2508 F   0  0  0  0  0  0  0  0  0  0  0  0
   19.6033   40.7622   50.1580 F   0  0  0  0  0  0  0  0  0  0  0  0
   18.0880   42.0490   51.2075 F   0  0  0  0  0  0  0  0  0  0  0  0
   19.3012   43.7428   53.3348 C   0  0  0  0  0  0  0  0  0  0  0  0
   19.2858   44.4229   54.5480 C   0  0  0  0  0  0  0  0  0  0  0  0
   22.7410   44.9166   57.1343 C   0  0  0  0  0  0  0  0  0  0  0  0
   23.7044   44.1261   57.7526 C   0  0  0  0  0  0  0  0  0  0  0  0
   25.0093   44.1511   57.2707 C   0  0  0  0  0  0  0  0  0  0  0  0
   25.3569   44.9511   56.1871 C   0  0  0  0  0  0  0  0  0  0  0  0
   24.3772   45.7334   55.5835 C   0  0  0  0  0  0  0  0  0  0  0  0
   24.7455   46.6115   54.3980 C   0  0  0  0  0  0  0  0  0  0  0  0
   25.0677   45.8085   53.1950 N   0  0  0  0  0  0  0  0  0  0  0  0
   24.6844   46.4995   51.9556 C   0  0  0  0  0  0  0  0  0  0  0  0
   25.0057   45.6542   50.7304 C   0  0  0  0  0  0  0  0  0  0  0  0
   25.7065   44.4661   51.0815 O   0  0  0  0  0  0  0  0  0  0  0  0
   26.8537   44.7086   51.8882 C   0  0  0  0  0  0  0  0  0  0  0  0
   26.5073   45.5126   53.1316 C   0  0  0  0  0  0  0  0  0  0  0  0
   23.0663   45.7238   56.0492 C   0  0  0  0  0  0  0  0  0  0  0  0
  1  2  2  0
  2  3  1  0
  3  4  1  0
  4  5  2  0
  5  6  1  0
  6  7  2  0
  7  8  1  0
  8  9  1  0
  9 10  1  0
  9 11  1  0
  9 12  1  0
  7 13  1  0
 13 14  2  0
  2 15  1  0
 15 16  2  0
 16 17  1  0
 17 18  2  0
 18 19  1  0
 19 20  1  0
 20 21  1  0
 21 22  1  0
 22 23  1  0
 23 24  1  0
 24 25  1  0
 25 26  1  0
 19 27  2  0
 14  4  1  0
 27 15  1  0
 26 21  1  0
M  CHG  1  21   1
M  END
>  <BIOSOLVEIT.HYDE_ESTIMATED_AFFINITY_LOWER_BOUNDARY [nM]>  (2) 
422.406089

>  <BIOSOLVEIT.HYDE_ESTIMATED_AFFINITY_UPPER_BOUNDARY [nM]>  (2) 
41968.542399

>  <BIOSOLVEIT.HYDE_LIGAND_EFFICIENCY range: ++, +, 0, -, -->  (2) 
-

>  <BIOSOLVEIT.HYDE_LIGAND_LIPOPHILIC_EFFICIENCY range: ++, +, 0, -, -->  (2) 
-

>  <BIOSOLVEIT.INTER_CLASH range: red, yellow, green>  (2) 
green

>  <BIOSOLVEIT.INTRA_CLASH range: red, yellow, green>  (2) 
yellow

>  <BIOSOLVEIT.LOGP>  (2) 
2.2526

>  <BIOSOLVEIT.MOLECULAR WEIGHT>  (2) 
381.372

>  <BIOSOLVEIT.MOLECULE_CHECKSUM>  (2) 
LTMwLjY4NDQ7MS4xMzY0Ng==

>  <BIOSOLVEIT.TORSION_QUALITY range: red, yellow, green, not rotatable>  (2) 
red

>  <BIOSOLVEIT.TPSA>  (2) 
52

$$$$
6HD4_FYW_1
     RDKit          3D

 32 35  0  0  0  0  0  0  0  0999 V2000
   21.6912   43.8571   53.2920 O   0  0  0  0  0  0  0  0  0  0  0  0
   20.9283   43.8797   54.2964 C   0  0  0  0  0  0  0  0  0  0  0  0
   19.6465   43.2248   54.2389 N   0  0  0  0  0  0  0  0  0  0  0  0
   19.1567   42.5243   53.0829 C   0  0  0  0  0  0  0  0  0  0  0  0
   20.0595   41.9445   52.1972 C   0  0  0  0  0  0  0  0  0  0  0  0
   19.5946   41.2644   51.0758 C   0  0  0  0  0  0  0  0  0  0  0  0
   18.2242   41.1749   50.8557 C   0  0  0  0  0  0  0  0  0  0  0  0
   17.7606   40.5188   49.7715 O   0  0  0  0  0  0  0  0  0  0  0  0
   17.2865   39.1740   49.7626 C   0  0  0  0  0  0  0  0  0  0  0  0
   16.2124   39.0717   50.6253 F   0  0  0  0  0  0  0  0  0  0  0  0
   16.8717   38.8231   48.4903 F   0  0  0  0  0  0  0  0  0  0  0  0
   18.2833   38.3142   50.1880 F   0  0  0  0  0  0  0  0  0  0  0  0
   17.3137   41.7523   51.7359 C   0  0  0  0  0  0  0  0  0  0  0  0
   17.7873   42.4299   52.8546 C   0  0  0  0  0  0  0  0  0  0  0  0
   21.3636   44.5787   55.4908 C   0  0  0  0  0  0  0  0  0  0  0  0
   20.5120   44.7774   56.5728 C   0  0  0  0  0  0  0  0  0  0  0  0
   20.9305   45.4253   57.6704 N   0  0  0  0  0  0  0  0  0  0  0  0
   22.1797   45.9049   57.7671 C   0  0  0  0  0  0  0  0  0  0  0  0
   22.5835   46.5765   58.9275 N   0  0  0  0  0  0  0  0  0  0  0  0
   23.4583   46.0224   59.9671 C   0  0  0  0  0  0  0  0  0  0  0  0
   24.2748   47.2325   60.3688 C   0  0  0  0  0  0  0  0  0  0  0  0
   23.3049   48.4008   60.2696 C   0  0  0  0  0  0  0  0  0  0  0  0
   22.7151   48.6815   61.5308 O   0  0  0  0  0  0  0  0  0  0  0  0
   22.2207   47.9366   59.3140 C   0  0  0  0  0  0  0  0  0  0  0  0
   23.0738   45.7350   56.7146 C   0  0  0  0  0  0  0  0  0  0  0  0
   24.4316   46.2397   56.7830 C   0  0  0  0  0  0  0  0  0  0  0  0
   25.5192   45.3762   56.7090 C   0  0  0  0  0  0  0  0  0  0  0  0
   26.7668   45.8633   56.7715 N   0  0  0  0  0  0  0  0  0  0  0  0
   26.9929   47.1786   56.9064 C   0  0  0  0  0  0  0  0  0  0  0  0
   25.9613   48.0322   56.9793 N   0  0  0  0  0  0  0  0  0  0  0  0
   24.6951   47.5980   56.9205 C   0  0  0  0  0  0  0  0  0  0  0  0
   22.6640   45.0664   55.5659 C   0  0  0  0  0  0  0  0  0  0  0  0
  1  2  2  0
  2  3  1  0
  3  4  1  0
  4  5  2  0
  5  6  1  0
  6  7  2  0
  7  8  1  0
  8  9  1  0
  9 10  1  0
  9 11  1  0
  9 12  1  0
  7 13  1  0
 13 14  2  0
  2 15  1  0
 15 16  2  0
 16 17  1  0
 17 18  2  0
 18 19  1  0
 19 20  1  0
 20 21  1  0
 21 22  1  0
 22 23  1  0
 22 24  1  0
 18 25  1  0
 25 26  1  0
 26 27  2  0
 27 28  1  0
 28 29  2  0
 29 30  1  0
 30 31  2  0
 25 32  2  0
 14  4  1  0
 32 15  1  0
 24 19  1  0
 31 26  1  0
M  END
>  <BIOSOLVEIT.HYDE_ESTIMATED_AFFINITY_LOWER_BOUNDARY [nM]>  (3) 
115.870546

>  <BIOSOLVEIT.HYDE_ESTIMATED_AFFINITY_UPPER_BOUNDARY [nM]>  (3) 
11512.423809

>  <BIOSOLVEIT.HYDE_LIGAND_EFFICIENCY range: ++, +, 0, -, -->  (3) 
-

>  <BIOSOLVEIT.HYDE_LIGAND_LIPOPHILIC_EFFICIENCY range: ++, +, 0, -, -->  (3) 
-

>  <BIOSOLVEIT.INTER_CLASH range: red, yellow, green>  (3) 
green

>  <BIOSOLVEIT.INTRA_CLASH range: red, yellow, green>  (3) 
yellow

>  <BIOSOLVEIT.LOGP>  (3) 
3.2605

>  <BIOSOLVEIT.MOLECULAR WEIGHT>  (3) 
445.399

>  <BIOSOLVEIT.MOLECULE_CHECKSUM>  (3) 
LTMzLjg5MDk7MS4wNTkwOQ==

>  <BIOSOLVEIT.TORSION_QUALITY range: red, yellow, green, not rotatable>  (3) 
green

>  <BIOSOLVEIT.TPSA>  (3) 
100.47

$$$$
2QOH_P3Y_3
     RDKit          3D

 28 31  0  0  0  0  0  0  0  0999 V2000
   15.6137   39.2105   52.1409 C   0  0  0  0  0  0  0  0  0  0  0  0
   16.5716   40.2359   52.3822 O   0  0  0  0  0  0  0  0  0  0  0  0
   17.6734   40.4494   51.6313 C   0  0  0  0  0  0  0  0  0  0  0  0
   17.8832   39.6484   50.5138 C   0  0  0  0  0  0  0  0  0  0  0  0
   19.0089   39.8431   49.7196 C   0  0  0  0  0  0  0  0  0  0  0  0
   19.9249   40.8387   50.0434 C   0  0  0  0  0  0  0  0  0  0  0  0
   19.7153   41.6405   51.1608 C   0  0  0  0  0  0  0  0  0  0  0  0
   18.5897   41.4455   51.9551 C   0  0  0  0  0  0  0  0  0  0  0  0
   18.3713   42.2812   53.1210 C   0  0  0  0  0  0  0  0  0  0  0  0
   17.1532   42.5647   53.6643 C   0  0  0  0  0  0  0  0  0  0  0  0
   17.3759   43.3749   54.7380 N   0  0  0  0  0  0  0  0  0  0  0  0
   18.7245   43.6052   54.8719 C   0  0  0  0  0  0  0  0  0  0  0  0
   19.4731   44.3123   55.7341 N   0  0  0  0  0  0  0  0  0  0  0  0
   20.8114   44.3673   55.6413 C   0  0  0  0  0  0  0  0  0  0  0  0
   21.5015   43.6900   54.6394 C   0  0  0  0  0  0  0  0  0  0  0  0
   22.9450   43.7209   54.5056 C   0  0  0  0  0  0  0  0  0  0  0  0
   23.5695   43.3864   53.3085 C   0  0  0  0  0  0  0  0  0  0  0  0
   24.9065   43.4209   53.2032 N   0  0  0  0  0  0  0  0  0  0  0  0
   25.6807   43.7766   54.2391 C   0  0  0  0  0  0  0  0  0  0  0  0
   25.1086   44.1208   55.4592 C   0  0  0  0  0  0  0  0  0  0  0  0
   25.9440   44.5159   56.6143 C   0  0  0  0  0  0  0  0  0  0  0  0
   25.5682   44.2017   57.7774 O   0  0  0  0  0  0  0  0  0  0  0  0
   27.1687   45.2547   56.4405 N   0  0  0  0  0  0  0  0  0  0  0  0
   27.1098   46.6471   55.9935 C   0  0  0  0  0  0  0  0  0  0  0  0
   28.4487   44.5416   56.3869 C   0  0  0  0  0  0  0  0  0  0  0  0
   23.7248   44.0932   55.5953 C   0  0  0  0  0  0  0  0  0  0  0  0
   20.7587   42.9495   53.7293 C   0  0  0  0  0  0  0  0  0  0  0  0
   19.3775   42.9291   53.8747 C   0  0  0  0  0  0  0  0  0  0  0  0
  1  2  1  0
  2  3  1  0
  3  4  2  0
  4  5  1  0
  5  6  2  0
  6  7  1  0
  7  8  2  0
  8  9  1  0
  9 10  2  0
 10 11  1  0
 11 12  1  0
 12 13  2  0
 13 14  1  0
 14 15  2  0
 15 16  1  0
 16 17  2  0
 17 18  1  0
 18 19  2  0
 19 20  1  0
 20 21  1  0
 21 22  2  0
 21 23  1  0
 23 24  1  0
 23 25  1  0
 20 26  2  0
 15 27  1  0
 27 28  2  0
  8  3  1  0
 28  9  1  0
 28 12  1  0
 26 16  1  0
M  CHG  1  13   1
M  END
>  <BIOSOLVEIT.HYDE_ESTIMATED_AFFINITY_LOWER_BOUNDARY [nM]>  (4) 
735.473039

>  <BIOSOLVEIT.HYDE_ESTIMATED_AFFINITY_UPPER_BOUNDARY [nM]>  (4) 
73073.594921

>  <BIOSOLVEIT.HYDE_LIGAND_EFFICIENCY range: ++, +, 0, -, -->  (4) 
-

>  <BIOSOLVEIT.HYDE_LIGAND_LIPOPHILIC_EFFICIENCY range: ++, +, 0, -, -->  (4) 
--

>  <BIOSOLVEIT.INTER_CLASH range: red, yellow, green>  (4) 
yellow

>  <BIOSOLVEIT.INTRA_CLASH range: red, yellow, green>  (4) 
red

>  <BIOSOLVEIT.LOGP>  (4) 
3.4214

>  <BIOSOLVEIT.MOLECULAR WEIGHT>  (4) 
373.434

>  <BIOSOLVEIT.MOLECULE_CHECKSUM>  (4) 
LTI5LjMwOTc7MS4wNDY3Nw==

>  <BIOSOLVEIT.TORSION_QUALITY range: red, yellow, green, not rotatable>  (4) 
red

>  <BIOSOLVEIT.TPSA>  (4) 
72.36

$$$$
3MS9_MS9_1
     RDKit          3D

 12 12  0  0  0  0  0  0  0  0999 V2000
   17.1462   41.0423   51.2948 C   0  0  0  0  0  0  0  0  0  0  0  0
   18.2980   41.6322   51.8853 O   0  0  0  0  0  0  0  0  0  0  0  0
   18.2309   42.4505   53.0176 C   0  0  0  0  0  0  0  0  0  0  0  0
   17.1204   42.6643   53.5782 O   0  0  0  0  0  0  0  0  0  0  0  0
   19.4425   43.0089   53.5861 C   0  0  0  0  0  0  0  0  0  0  0  0
   20.6420   42.8298   52.9038 C   0  0  0  0  0  0  0  0  0  0  0  0
   21.8221   43.3534   53.4221 C   0  0  0  0  0  0  0  0  0  0  0  0
   21.7902   44.0538   54.6237 C   0  0  0  0  0  0  0  0  0  0  0  0
   23.2974   44.7257   55.2918 Cl  0  0  0  0  0  0  0  0  0  0  0  0
   20.5945   44.2365   55.3111 C   0  0  0  0  0  0  0  0  0  0  0  0
   19.4175   43.7109   54.7876 C   0  0  0  0  0  0  0  0  0  0  0  0
   18.2236   43.9047   55.4932 N   0  0  0  0  0  0  0  0  0  0  0  0
  1  2  1  0
  2  3  1  0
  3  4  2  0
  3  5  1  0
  5  6  2  0
  6  7  1  0
  7  8  2  0
  8  9  1  0
  8 10  1  0
 10 11  2  0
 11 12  1  0
 11  5  1  0
M  END
>  <BIOSOLVEIT.HYDE_ESTIMATED_AFFINITY_LOWER_BOUNDARY [nM]>  (5) 
16016.681412

>  <BIOSOLVEIT.HYDE_ESTIMATED_AFFINITY_UPPER_BOUNDARY [nM]>  (5) 
1591351.996377

>  <BIOSOLVEIT.HYDE_LIGAND_EFFICIENCY range: ++, +, 0, -, -->  (5) 
+

>  <BIOSOLVEIT.HYDE_LIGAND_LIPOPHILIC_EFFICIENCY range: ++, +, 0, -, -->  (5) 
-

>  <BIOSOLVEIT.INTER_CLASH range: red, yellow, green>  (5) 
green

>  <BIOSOLVEIT.INTRA_CLASH range: red, yellow, green>  (5) 
green

>  <BIOSOLVEIT.LOGP>  (5) 
1.7088

>  <BIOSOLVEIT.MOLECULAR WEIGHT>  (5) 
185.609

>  <BIOSOLVEIT.MOLECULE_CHECKSUM>  (5) 
LTIxLjY3MjM7MS44MDYwMw==

>  <BIOSOLVEIT.TORSION_QUALITY range: red, yellow, green, not rotatable>  (5) 
green

>  <BIOSOLVEIT.TPSA>  (5) 
52.32

$$$$
3K5V_STJ_2
     RDKit          3D

 27 29  0  0  0  0  0  0  0  0999 V2000
   27.3777   45.7634   51.6365 N   0  0  0  0  0  0  0  0  0  0  0  0
   26.3639   44.7921   51.9093 C   0  0  0  0  0  0  0  0  0  0  0  0
   25.8482   44.1643   50.9449 O   0  0  0  0  0  0  0  0  0  0  0  0
   25.9226   44.4997   53.2956 C   0  0  0  0  0  0  0  0  0  0  0  0
   26.8689   44.2871   54.2929 C   0  0  0  0  0  0  0  0  0  0  0  0
   26.4364   44.0144   55.5867 C   0  0  0  0  0  0  0  0  0  0  0  0
   25.0804   43.9525   55.8904 C   0  0  0  0  0  0  0  0  0  0  0  0
   24.1513   44.1689   54.8774 C   0  0  0  0  0  0  0  0  0  0  0  0
   22.7346   44.1072   55.1827 C   0  0  0  0  0  0  0  0  0  0  0  0
   21.8163   44.1084   54.1379 C   0  0  0  0  0  0  0  0  0  0  0  0
   20.4601   44.0491   54.4419 C   0  0  0  0  0  0  0  0  0  0  0  0
   19.5265   44.0505   53.3976 N   0  0  0  0  0  0  0  0  0  0  0  0
   18.9468   42.8611   52.8352 C   0  0  0  0  0  0  0  0  0  0  0  0
   17.5632   42.7507   52.7384 C   0  0  0  0  0  0  0  0  0  0  0  0
   16.9932   41.6033   52.1953 C   0  0  0  0  0  0  0  0  0  0  0  0
   17.8219   40.5767   51.7549 C   0  0  0  0  0  0  0  0  0  0  0  0
   17.2816   39.4586   51.2270 O   0  0  0  0  0  0  0  0  0  0  0  0
   17.2870   39.1150   49.8430 C   0  0  0  0  0  0  0  0  0  0  0  0
   18.5876   39.0110   49.3826 F   0  0  0  0  0  0  0  0  0  0  0  0
   16.6413   40.1079   49.1321 F   0  0  0  0  0  0  0  0  0  0  0  0
   16.6195   37.9194   49.6457 F   0  0  0  0  0  0  0  0  0  0  0  0
   19.2067   40.6782   51.8483 C   0  0  0  0  0  0  0  0  0  0  0  0
   19.7680   41.8288   52.3922 C   0  0  0  0  0  0  0  0  0  0  0  0
   20.0801   43.9924   55.7274 N   0  0  0  0  0  0  0  0  0  0  0  0
   20.9776   43.9919   56.7247 C   0  0  0  0  0  0  0  0  0  0  0  0
   22.2887   44.0490   56.4467 N   0  0  0  0  0  0  0  0  0  0  0  0
   24.5615   44.4431   53.5766 C   0  0  0  0  0  0  0  0  0  0  0  0
  1  2  1  0
  2  3  2  0
  2  4  1  0
  4  5  2  0
  5  6  1  0
  6  7  2  0
  7  8  1  0
  8  9  1  0
  9 10  2  0
 10 11  1  0
 11 12  1  0
 12 13  1  0
 13 14  2  0
 14 15  1  0
 15 16  2  0
 16 17  1  0
 17 18  1  0
 18 19  1  0
 18 20  1  0
 18 21  1  0
 16 22  1  0
 22 23  2  0
 11 24  2  0
 24 25  1  0
 25 26  2  0
  8 27  2  0
 27  4  1  0
 26  9  1  0
 23 13  1  0
M  END
>  <BIOSOLVEIT.HYDE_ESTIMATED_AFFINITY_LOWER_BOUNDARY [nM]>  (6) 
26.015041

>  <BIOSOLVEIT.HYDE_ESTIMATED_AFFINITY_UPPER_BOUNDARY [nM]>  (6) 
2584.748118

>  <BIOSOLVEIT.HYDE_LIGAND_EFFICIENCY range: ++, +, 0, -, -->  (6) 
0

>  <BIOSOLVEIT.HYDE_LIGAND_LIPOPHILIC_EFFICIENCY range: ++, +, 0, -, -->  (6) 
-

>  <BIOSOLVEIT.INTER_CLASH range: red, yellow, green>  (6) 
green

>  <BIOSOLVEIT.INTRA_CLASH range: red, yellow, green>  (6) 
green

>  <BIOSOLVEIT.LOGP>  (6) 
3.8847

>  <BIOSOLVEIT.MOLECULAR WEIGHT>  (6) 
374.321

>  <BIOSOLVEIT.MOLECULE_CHECKSUM>  (6) 
LTM3LjU5NDsxLjM5MjM3

>  <BIOSOLVEIT.TORSION_QUALITY range: red, yellow, green, not rotatable>  (6) 
green

>  <BIOSOLVEIT.TPSA>  (6) 
90.13

$$$$
3K5V_STI_3
     RDKit          3D

 37 41  0  0  0  0  0  0  0  0999 V2000
   26.3694   43.3540   53.8045 C   0  0  0  0  0  0  0  0  0  0  0  0
   25.9582   44.4264   54.8001 C   0  0  0  0  0  0  0  0  0  0  0  0
   26.9055   45.3599   55.2074 C   0  0  0  0  0  0  0  0  0  0  0  0
   26.5572   46.3529   56.1173 C   0  0  0  0  0  0  0  0  0  0  0  0
   25.2577   46.3999   56.6111 C   0  0  0  0  0  0  0  0  0  0  0  0
   24.8970   47.3952   57.5274 N   0  0  0  0  0  0  0  0  0  0  0  0
   23.5897   47.5211   58.1088 C   0  0  0  0  0  0  0  0  0  0  0  0
   23.1761   48.6671   58.4317 O   0  0  0  0  0  0  0  0  0  0  0  0
   22.7367   46.3390   58.3768 C   0  0  0  0  0  0  0  0  0  0  0  0
   21.4136   46.3409   57.9468 C   0  0  0  0  0  0  0  0  0  0  0  0
   20.6012   45.2379   58.1900 C   0  0  0  0  0  0  0  0  0  0  0  0
   21.1309   44.1423   58.8651 C   0  0  0  0  0  0  0  0  0  0  0  0
   20.2546   42.9305   59.1387 C   0  0  0  0  0  0  0  0  0  0  0  0
   19.6140   42.9943   60.4782 N   0  0  0  0  0  0  0  0  0  0  0  0
   20.6568   43.2386   61.4870 C   0  0  0  0  0  0  0  0  0  0  0  0
   20.0891   43.9952   62.6791 C   0  0  0  0  0  0  0  0  0  0  0  0
   19.6847   45.3545   62.2907 N   0  0  0  0  0  0  0  0  0  0  0  0
   20.8016   46.3060   62.3945 C   0  0  0  0  0  0  0  0  0  0  0  0
   19.1775   45.3896   60.9108 C   0  0  0  0  0  0  0  0  0  0  0  0
   18.5801   44.0407   60.5385 C   0  0  0  0  0  0  0  0  0  0  0  0
   22.4531   44.1360   59.2972 C   0  0  0  0  0  0  0  0  0  0  0  0
   23.2614   45.2416   59.0514 C   0  0  0  0  0  0  0  0  0  0  0  0
   24.3046   45.4700   56.2087 C   0  0  0  0  0  0  0  0  0  0  0  0
   24.6601   44.4796   55.2986 C   0  0  0  0  0  0  0  0  0  0  0  0
   23.6857   43.5106   54.8725 N   0  0  0  0  0  0  0  0  0  0  0  0
   22.3430   43.8227   54.6232 C   0  0  0  0  0  0  0  0  0  0  0  0
   21.8162   44.9175   55.1912 N   0  0  0  0  0  0  0  0  0  0  0  0
   20.5368   45.2648   54.9882 C   0  0  0  0  0  0  0  0  0  0  0  0
   19.7336   44.4761   54.1712 C   0  0  0  0  0  0  0  0  0  0  0  0
   20.2886   43.3427   53.5869 C   0  0  0  0  0  0  0  0  0  0  0  0
   19.4569   42.5136   52.7329 C   0  0  0  0  0  0  0  0  0  0  0  0
   20.0254   41.8773   51.6345 C   0  0  0  0  0  0  0  0  0  0  0  0
   19.2258   41.0835   50.8197 C   0  0  0  0  0  0  0  0  0  0  0  0
   17.8769   40.9513   51.1317 C   0  0  0  0  0  0  0  0  0  0  0  0
   17.3517   41.5752   52.1966 N   0  0  0  0  0  0  0  0  0  0  0  0
   18.1018   42.3462   52.9982 C   0  0  0  0  0  0  0  0  0  0  0  0
   21.5769   43.0536   53.8329 N   0  0  0  0  0  0  0  0  0  0  0  0
  1  2  1  0
  2  3  2  0
  3  4  1  0
  4  5  2  0
  5  6  1  0
  6  7  1  0
  7  8  2  0
  7  9  1  0
  9 10  2  0
 10 11  1  0
 11 12  2  0
 12 13  1  0
 13 14  1  0
 14 15  1  0
 15 16  1  0
 16 17  1  0
 17 18  1  0
 17 19  1  0
 19 20  1  0
 12 21  1  0
 21 22  2  0
  5 23  1  0
 23 24  2  0
 24 25  1  0
 25 26  1  0
 26 27  2  0
 27 28  1  0
 28 29  2  0
 29 30  1  0
 30 31  1  0
 31 32  2  0
 32 33  1  0
 33 34  2  0
 34 35  1  0
 35 36  2  0
 30 37  2  0
 24  2  1  0
 37 26  1  0
 22  9  1  0
 36 31  1  0
 20 14  1  0
M  CHG  2  14   1  17   1
M  END
>  <BIOSOLVEIT.HYDE_ESTIMATED_AFFINITY_LOWER_BOUNDARY [nM]>  (7) 
64416784.434859

>  <BIOSOLVEIT.HYDE_ESTIMATED_AFFINITY_UPPER_BOUNDARY [nM]>  (7) 
6400188395.774656

>  <BIOSOLVEIT.HYDE_LIGAND_EFFICIENCY range: ++, +, 0, -, -->  (7) 
--

>  <BIOSOLVEIT.HYDE_LIGAND_LIPOPHILIC_EFFICIENCY range: ++, +, 0, -, -->  (7) 
--

>  <BIOSOLVEIT.INTER_CLASH range: red, yellow, green>  (7) 
green

>  <BIOSOLVEIT.INTRA_CLASH range: red, yellow, green>  (7) 
red

>  <BIOSOLVEIT.LOGP>  (7) 
1.75612

>  <BIOSOLVEIT.MOLECULAR WEIGHT>  (7) 
495.628

>  <BIOSOLVEIT.MOLECULE_CHECKSUM>  (7) 
LTEuMDk4MjQ7MC4wMjk2ODIz

>  <BIOSOLVEIT.TORSION_QUALITY range: red, yellow, green, not rotatable>  (7) 
red

>  <BIOSOLVEIT.TPSA>  (7) 
88.68

$$$$
