1FPU_PRC_1
     RDKit          3D

 29 32  0  0  0  0  0  0  0  0999 V2000
   21.0587   11.7876   56.4632 C   0  0  0  0  0  0  0  0  0  0  0  0
   20.1682   12.8997   55.9332 C   0  0  0  0  0  0  0  0  0  0  0  0
   18.8698   12.5886   55.5432 C   0  0  0  0  0  0  0  0  0  0  0  0
   18.0323   13.5865   55.0547 C   0  0  0  0  0  0  0  0  0  0  0  0
   18.5073   14.8905   54.9621 C   0  0  0  0  0  0  0  0  0  0  0  0
   17.6727   15.9021   54.4717 N   0  0  0  0  0  0  0  0  0  0  0  0
   16.3956   15.6511   53.8684 C   0  0  0  0  0  0  0  0  0  0  0  0
   15.4987   15.0729   54.5409 O   0  0  0  0  0  0  0  0  0  0  0  0
   16.1205   16.0659   52.4715 C   0  0  0  0  0  0  0  0  0  0  0  0
   15.5371   17.3049   52.2285 C   0  0  0  0  0  0  0  0  0  0  0  0
   15.2815   17.6906   50.9173 C   0  0  0  0  0  0  0  0  0  0  0  0
   15.6196   16.8200   49.8866 C   0  0  0  0  0  0  0  0  0  0  0  0
   16.1814   15.6300   50.1464 N   0  0  0  0  0  0  0  0  0  0  0  0
   16.4383   15.2348   51.4024 C   0  0  0  0  0  0  0  0  0  0  0  0
   19.8044   15.2095   55.3501 C   0  0  0  0  0  0  0  0  0  0  0  0
   20.6364   14.2066   55.8376 C   0  0  0  0  0  0  0  0  0  0  0  0
   21.9838   14.5213   56.2441 N   0  0  0  0  0  0  0  0  0  0  0  0
   22.2940   15.4351   57.2595 C   0  0  0  0  0  0  0  0  0  0  0  0
   21.5424   15.4493   58.3701 N   0  0  0  0  0  0  0  0  0  0  0  0
   21.7928   16.3023   59.3742 C   0  0  0  0  0  0  0  0  0  0  0  0
   22.8546   17.1944   59.2671 C   0  0  0  0  0  0  0  0  0  0  0  0
   23.6283   17.1725   58.1118 C   0  0  0  0  0  0  0  0  0  0  0  0
   24.7385   18.1005   57.9919 C   0  0  0  0  0  0  0  0  0  0  0  0
   25.0512   18.9342   59.0603 C   0  0  0  0  0  0  0  0  0  0  0  0
   26.1158   19.8209   58.9420 C   0  0  0  0  0  0  0  0  0  0  0  0
   26.8363   19.8450   57.7525 C   0  0  0  0  0  0  0  0  0  0  0  0
   26.5153   19.0310   56.7359 N   0  0  0  0  0  0  0  0  0  0  0  0
   25.4932   18.1667   56.8253 C   0  0  0  0  0  0  0  0  0  0  0  0
   23.3216   16.2920   57.1451 N   0  0  0  0  0  0  0  0  0  0  0  0
  1  2  1  0
  2  3  2  0
  3  4  1  0
  4  5  2  0
  5  6  1  0
  6  7  1  0
  7  8  2  0
  7  9  1  0
  9 10  2  0
 10 11  1  0
 11 12  2  0
 12 13  1  0
 13 14  2  0
  5 15  1  0
 15 16  2  0
 16 17  1  0
 17 18  1  0
 18 19  2  0
 19 20  1  0
 20 21  2  0
 21 22  1  0
 22 23  1  0
 23 24  2  0
 24 25  1  0
 25 26  2  0
 26 27  1  0
 27 28  2  0
 22 29  2  0
 16  2  1  0
 29 18  1  0
 14  9  1  0
 28 23  1  0
M  END
>  <BIOSOLVEIT.HYDE_ESTIMATED_AFFINITY_LOWER_BOUNDARY [nM]>  (1) 
46.842810

>  <BIOSOLVEIT.HYDE_ESTIMATED_AFFINITY_UPPER_BOUNDARY [nM]>  (1) 
4654.110096

>  <BIOSOLVEIT.HYDE_LIGAND_EFFICIENCY range: ++, +, 0, -, -->  (1) 
-

>  <BIOSOLVEIT.HYDE_LIGAND_LIPOPHILIC_EFFICIENCY range: ++, +, 0, -, -->  (1) 
-

>  <BIOSOLVEIT.INTER_CLASH range: red, yellow, green>  (1) 
green

>  <BIOSOLVEIT.INTRA_CLASH range: red, yellow, green>  (1) 
green

>  <BIOSOLVEIT.LOGP>  (1) 
4.23792

>  <BIOSOLVEIT.MOLECULAR WEIGHT>  (1) 
382.425

>  <BIOSOLVEIT.MOLECULE_CHECKSUM>  (1) 
LTM2LjEzNjsxLjI0NjA3

>  <BIOSOLVEIT.TORSION_QUALITY range: red, yellow, green, not rotatable>  (1) 
red

>  <BIOSOLVEIT.TPSA>  (1) 
92.69

$$$$
6HD6_FYH_1
     RDKit          3D

 27 29  0  0  0  0  0  0  0  0999 V2000
   21.6957   16.6626   58.8770 O   0  0  0  0  0  0  0  0  0  0  0  0
   22.3148   16.1796   57.8894 C   0  0  0  0  0  0  0  0  0  0  0  0
   23.3738   16.9339   57.2756 N   0  0  0  0  0  0  0  0  0  0  0  0
   24.1843   17.8407   57.9677 C   0  0  0  0  0  0  0  0  0  0  0  0
   24.1589   17.8622   59.3586 C   0  0  0  0  0  0  0  0  0  0  0  0
   24.9614   18.7604   60.0553 C   0  0  0  0  0  0  0  0  0  0  0  0
   25.7823   19.6298   59.3446 C   0  0  0  0  0  0  0  0  0  0  0  0
   26.5966   20.5418   60.0354 O   0  0  0  0  0  0  0  0  0  0  0  0
   28.0226   20.5303   60.0446 C   0  0  0  0  0  0  0  0  0  0  0  0
   28.4739   21.5736   60.8288 F   0  0  0  0  0  0  0  0  0  0  0  0
   28.4865   19.3402   60.5756 F   0  0  0  0  0  0  0  0  0  0  0  0
   28.5091   20.6953   58.7601 F   0  0  0  0  0  0  0  0  0  0  0  0
   25.8137   19.6159   57.9534 C   0  0  0  0  0  0  0  0  0  0  0  0
   25.0084   18.7145   57.2652 C   0  0  0  0  0  0  0  0  0  0  0  0
   21.9066   14.8615   57.3457 C   0  0  0  0  0  0  0  0  0  0  0  0
   22.5919   13.7129   57.7277 C   0  0  0  0  0  0  0  0  0  0  0  0
   22.1949   12.4852   57.2074 C   0  0  0  0  0  0  0  0  0  0  0  0
   21.1295   12.3957   56.3174 C   0  0  0  0  0  0  0  0  0  0  0  0
   20.4579   13.5574   55.9494 C   0  0  0  0  0  0  0  0  0  0  0  0
   19.2915   13.4718   54.9776 C   0  0  0  0  0  0  0  0  0  0  0  0
   18.0876   14.1625   55.4962 N   0  0  0  0  0  0  0  0  0  0  0  0
   18.3720   15.5618   55.8467 C   0  0  0  0  0  0  0  0  0  0  0  0
   18.1513   16.4451   54.6283 C   0  0  0  0  0  0  0  0  0  0  0  0
   16.7881   16.4653   54.2199 O   0  0  0  0  0  0  0  0  0  0  0  0
   16.0965   15.2693   54.5465 C   0  0  0  0  0  0  0  0  0  0  0  0
   17.0307   14.0689   54.4752 C   0  0  0  0  0  0  0  0  0  0  0  0
   20.8382   14.7954   56.4574 C   0  0  0  0  0  0  0  0  0  0  0  0
  1  2  2  0
  2  3  1  0
  3  4  1  0
  4  5  2  0
  5  6  1  0
  6  7  2  0
  7  8  1  0
  8  9  1  0
  9 10  1  0
  9 11  1  0
  9 12  1  0
  7 13  1  0
 13 14  2  0
  2 15  1  0
 15 16  2  0
 16 17  1  0
 17 18  2  0
 18 19  1  0
 19 20  1  0
 20 21  1  0
 21 22  1  0
 22 23  1  0
 23 24  1  0
 24 25  1  0
 25 26  1  0
 19 27  2  0
 14  4  1  0
 27 15  1  0
 26 21  1  0
M  CHG  1  21   1
M  END
>  <BIOSOLVEIT.HYDE_ESTIMATED_AFFINITY_LOWER_BOUNDARY [nM]>  (2) 
407.130992

>  <BIOSOLVEIT.HYDE_ESTIMATED_AFFINITY_UPPER_BOUNDARY [nM]>  (2) 
40450.871217

>  <BIOSOLVEIT.HYDE_LIGAND_EFFICIENCY range: ++, +, 0, -, -->  (2) 
-

>  <BIOSOLVEIT.HYDE_LIGAND_LIPOPHILIC_EFFICIENCY range: ++, +, 0, -, -->  (2) 
-

>  <BIOSOLVEIT.INTER_CLASH range: red, yellow, green>  (2) 
yellow

>  <BIOSOLVEIT.INTRA_CLASH range: red, yellow, green>  (2) 
red

>  <BIOSOLVEIT.LOGP>  (2) 
2.2526

>  <BIOSOLVEIT.MOLECULAR WEIGHT>  (2) 
381.372

>  <BIOSOLVEIT.MOLECULE_CHECKSUM>  (2) 
LTMwLjc3NTc7MS4xMzk4NA==

>  <BIOSOLVEIT.TORSION_QUALITY range: red, yellow, green, not rotatable>  (2) 
yellow

>  <BIOSOLVEIT.TPSA>  (2) 
52

$$$$
6HD4_FYW_3
     RDKit          3D

 32 35  0  0  0  0  0  0  0  0999 V2000
   12.7877   14.6944   57.0764 O   0  0  0  0  0  0  0  0  0  0  0  0
   12.7496   14.6302   55.8182 C   0  0  0  0  0  0  0  0  0  0  0  0
   13.9840   14.4842   55.0960 N   0  0  0  0  0  0  0  0  0  0  0  0
   14.2142   14.9897   53.7688 C   0  0  0  0  0  0  0  0  0  0  0  0
   14.9126   16.1810   53.5987 C   0  0  0  0  0  0  0  0  0  0  0  0
   15.1401   16.6773   52.3188 C   0  0  0  0  0  0  0  0  0  0  0  0
   14.6615   15.9697   51.2212 C   0  0  0  0  0  0  0  0  0  0  0  0
   14.8748   16.4409   49.9747 O   0  0  0  0  0  0  0  0  0  0  0  0
   16.1042   16.3474   49.2585 C   0  0  0  0  0  0  0  0  0  0  0  0
   16.4605   15.0206   49.0940 F   0  0  0  0  0  0  0  0  0  0  0  0
   17.0929   16.9878   49.9798 F   0  0  0  0  0  0  0  0  0  0  0  0
   15.9846   16.9605   48.0242 F   0  0  0  0  0  0  0  0  0  0  0  0
   13.9614   14.7777   51.3818 C   0  0  0  0  0  0  0  0  0  0  0  0
   13.7389   14.2886   52.6648 C   0  0  0  0  0  0  0  0  0  0  0  0
   11.4649   14.6659   55.1452 C   0  0  0  0  0  0  0  0  0  0  0  0
   10.3666   13.9618   55.6285 C   0  0  0  0  0  0  0  0  0  0  0  0
    9.1852   14.0060   54.9947 N   0  0  0  0  0  0  0  0  0  0  0  0
    9.0173   14.7265   53.8756 C   0  0  0  0  0  0  0  0  0  0  0  0
    7.7674   14.7504   53.2376 N   0  0  0  0  0  0  0  0  0  0  0  0
    6.4971   15.0637   53.8776 C   0  0  0  0  0  0  0  0  0  0  0  0
    5.7750   15.8420   52.7934 C   0  0  0  0  0  0  0  0  0  0  0  0
    6.1948   15.1578   51.5052 C   0  0  0  0  0  0  0  0  0  0  0  0
    6.3476   16.1356   50.5107 O   0  0  0  0  0  0  0  0  0  0  0  0
    7.5128   14.4799   51.8199 C   0  0  0  0  0  0  0  0  0  0  0  0
   10.0820   15.4500   53.3473 C   0  0  0  0  0  0  0  0  0  0  0  0
    9.9384   16.2398   52.1395 C   0  0  0  0  0  0  0  0  0  0  0  0
    9.7614   17.6177   52.2039 C   0  0  0  0  0  0  0  0  0  0  0  0
    9.6331   18.3300   51.0754 N   0  0  0  0  0  0  0  0  0  0  0  0
    9.6708   17.7381   49.8722 C   0  0  0  0  0  0  0  0  0  0  0  0
    9.8412   16.4109   49.7831 N   0  0  0  0  0  0  0  0  0  0  0  0
    9.9757   15.6528   50.8796 C   0  0  0  0  0  0  0  0  0  0  0  0
   11.3171   15.4206   53.9862 C   0  0  0  0  0  0  0  0  0  0  0  0
  1  2  2  0
  2  3  1  0
  3  4  1  0
  4  5  2  0
  5  6  1  0
  6  7  2  0
  7  8  1  0
  8  9  1  0
  9 10  1  0
  9 11  1  0
  9 12  1  0
  7 13  1  0
 13 14  2  0
  2 15  1  0
 15 16  2  0
 16 17  1  0
 17 18  2  0
 18 19  1  0
 19 20  1  0
 20 21  1  0
 21 22  1  0
 22 23  1  0
 22 24  1  0
 18 25  1  0
 25 26  1  0
 26 27  2  0
 27 28  1  0
 28 29  2  0
 29 30  1  0
 30 31  2  0
 25 32  2  0
 14  4  1  0
 32 15  1  0
 24 19  1  0
 31 26  1  0
M  END
>  <BIOSOLVEIT.HYDE_ESTIMATED_AFFINITY_LOWER_BOUNDARY [nM]>  (3) 
21634.386800

>  <BIOSOLVEIT.HYDE_ESTIMATED_AFFINITY_UPPER_BOUNDARY [nM]>  (3) 
2149504.241179

>  <BIOSOLVEIT.HYDE_LIGAND_EFFICIENCY range: ++, +, 0, -, -->  (3) 
--

>  <BIOSOLVEIT.HYDE_LIGAND_LIPOPHILIC_EFFICIENCY range: ++, +, 0, -, -->  (3) 
--

>  <BIOSOLVEIT.INTER_CLASH range: red, yellow, green>  (3) 
yellow

>  <BIOSOLVEIT.INTRA_CLASH range: red, yellow, green>  (3) 
red

>  <BIOSOLVEIT.LOGP>  (3) 
3.2605

>  <BIOSOLVEIT.MOLECULAR WEIGHT>  (3) 
445.399

>  <BIOSOLVEIT.MOLECULE_CHECKSUM>  (3) 
LTIwLjkyNzswLjY1Mzk3

>  <BIOSOLVEIT.TORSION_QUALITY range: red, yellow, green, not rotatable>  (3) 
red

>  <BIOSOLVEIT.TPSA>  (3) 
100.47

$$$$
2QOH_P3Y_1
     RDKit          3D

 28 31  0  0  0  0  0  0  0  0999 V2000
   21.6886   13.1559   56.3634 C   0  0  0  0  0  0  0  0  0  0  0  0
   21.9398   14.5522   56.4755 O   0  0  0  0  0  0  0  0  0  0  0  0
   21.7140   15.2275   57.6229 C   0  0  0  0  0  0  0  0  0  0  0  0
   20.7291   14.7613   58.4873 C   0  0  0  0  0  0  0  0  0  0  0  0
   20.4724   15.4347   59.6774 C   0  0  0  0  0  0  0  0  0  0  0  0
   21.2004   16.5745   60.0029 C   0  0  0  0  0  0  0  0  0  0  0  0
   22.1862   17.0408   59.1388 C   0  0  0  0  0  0  0  0  0  0  0  0
   22.4425   16.3676   57.9485 C   0  0  0  0  0  0  0  0  0  0  0  0
   23.4696   16.8542   57.0474 C   0  0  0  0  0  0  0  0  0  0  0  0
   23.4878   16.6529   55.6989 C   0  0  0  0  0  0  0  0  0  0  0  0
   24.6094   17.2635   55.2213 N   0  0  0  0  0  0  0  0  0  0  0  0
   25.2977   17.8445   56.2596 C   0  0  0  0  0  0  0  0  0  0  0  0
   26.4355   18.5523   56.3495 N   0  0  0  0  0  0  0  0  0  0  0  0
   26.8954   19.0219   57.5204 C   0  0  0  0  0  0  0  0  0  0  0  0
   26.2136   18.7992   58.7138 C   0  0  0  0  0  0  0  0  0  0  0  0
   26.6748   19.2916   60.0009 C   0  0  0  0  0  0  0  0  0  0  0  0
   26.1047   18.8536   61.1916 C   0  0  0  0  0  0  0  0  0  0  0  0
   26.5437   19.3193   62.3705 N   0  0  0  0  0  0  0  0  0  0  0  0
   27.5396   20.2150   62.4416 C   0  0  0  0  0  0  0  0  0  0  0  0
   28.1454   20.6869   61.2821 C   0  0  0  0  0  0  0  0  0  0  0  0
   29.2232   21.6550   61.3369 C   0  0  0  0  0  0  0  0  0  0  0  0
   28.9395   22.8826   61.2730 O   0  0  0  0  0  0  0  0  0  0  0  0
   30.6022   21.2497   61.4509 N   0  0  0  0  0  0  0  0  0  0  0  0
   31.6686   22.2548   61.5225 C   0  0  0  0  0  0  0  0  0  0  0  0
   30.9124   19.8328   61.6575 C   0  0  0  0  0  0  0  0  0  0  0  0
   27.7091   20.2204   60.0467 C   0  0  0  0  0  0  0  0  0  0  0  0
   25.0333   18.0696   58.6580 C   0  0  0  0  0  0  0  0  0  0  0  0
   24.6062   17.6094   57.4191 C   0  0  0  0  0  0  0  0  0  0  0  0
  1  2  1  0
  2  3  1  0
  3  4  2  0
  4  5  1  0
  5  6  2  0
  6  7  1  0
  7  8  2  0
  8  9  1  0
  9 10  2  0
 10 11  1  0
 11 12  1  0
 12 13  2  0
 13 14  1  0
 14 15  2  0
 15 16  1  0
 16 17  2  0
 17 18  1  0
 18 19  2  0
 19 20  1  0
 20 21  1  0
 21 22  2  0
 21 23  1  0
 23 24  1  0
 23 25  1  0
 20 26  2  0
 15 27  1  0
 27 28  2  0
  8  3  1  0
 28  9  1  0
 28 12  1  0
 26 16  1  0
M  END
>  <BIOSOLVEIT.HYDE_ESTIMATED_AFFINITY_LOWER_BOUNDARY [nM]>  (4) 
4.978055

>  <BIOSOLVEIT.HYDE_ESTIMATED_AFFINITY_UPPER_BOUNDARY [nM]>  (4) 
494.599230

>  <BIOSOLVEIT.HYDE_LIGAND_EFFICIENCY range: ++, +, 0, -, -->  (4) 
0

>  <BIOSOLVEIT.HYDE_LIGAND_LIPOPHILIC_EFFICIENCY range: ++, +, 0, -, -->  (4) 
-

>  <BIOSOLVEIT.INTER_CLASH range: red, yellow, green>  (4) 
yellow

>  <BIOSOLVEIT.INTRA_CLASH range: red, yellow, green>  (4) 
red

>  <BIOSOLVEIT.LOGP>  (4) 
4.0023

>  <BIOSOLVEIT.MOLECULAR WEIGHT>  (4) 
372.426

>  <BIOSOLVEIT.MOLECULE_CHECKSUM>  (4) 
LTQxLjY5MzM7MS40ODkwNA==

>  <BIOSOLVEIT.TORSION_QUALITY range: red, yellow, green, not rotatable>  (4) 
yellow

>  <BIOSOLVEIT.TPSA>  (4) 
71.11

$$$$
3KF4_B90_2
     RDKit          3D

 32 36  0  0  0  0  0  0  0  0999 V2000
   22.2163   13.1108   57.4098 C   0  0  0  0  0  0  0  0  0  0  0  0
   20.9367   13.6815   56.8198 C   0  0  0  0  0  0  0  0  0  0  0  0
   19.8740   12.8250   56.5558 C   0  0  0  0  0  0  0  0  0  0  0  0
   18.6939   13.3266   56.0155 C   0  0  0  0  0  0  0  0  0  0  0  0
   18.5536   14.6816   55.7334 C   0  0  0  0  0  0  0  0  0  0  0  0
   17.5193   15.4146   55.2143 N   0  0  0  0  0  0  0  0  0  0  0  0
   17.8839   16.6764   55.1324 N   0  0  0  0  0  0  0  0  0  0  0  0
   19.1151   16.7950   55.5854 C   0  0  0  0  0  0  0  0  0  0  0  0
   19.6051   15.5230   55.9915 C   0  0  0  0  0  0  0  0  0  0  0  0
   20.7925   15.0369   56.5351 C   0  0  0  0  0  0  0  0  0  0  0  0
   21.9023   15.9291   56.8120 C   0  0  0  0  0  0  0  0  0  0  0  0
   22.7437   16.3378   55.8545 C   0  0  0  0  0  0  0  0  0  0  0  0
   23.8473   17.2214   56.1139 N   0  0  0  0  0  0  0  0  0  0  0  0
   24.8364   17.5117   55.2210 C   0  0  0  0  0  0  0  0  0  0  0  0
   25.6683   18.3470   55.8036 N   0  0  0  0  0  0  0  0  0  0  0  0
   25.2187   18.5975   57.0689 C   0  0  0  0  0  0  0  0  0  0  0  0
   25.6589   19.3732   58.1354 C   0  0  0  0  0  0  0  0  0  0  0  0
   26.8313   20.1287   58.0121 N   0  0  0  0  0  0  0  0  0  0  0  0
   27.7267   20.4036   59.1025 C   0  0  0  0  0  0  0  0  0  0  0  0
   27.5479   19.7435   60.3140 C   0  0  0  0  0  0  0  0  0  0  0  0
   28.4069   19.9984   61.3780 C   0  0  0  0  0  0  0  0  0  0  0  0
   29.4385   20.9167   61.2120 C   0  0  0  0  0  0  0  0  0  0  0  0
   30.5333   21.2507   62.5490 P   0  0  0  0  0  0  0  0  0  0  0  0
   32.1118   20.4041   62.2602 C   0  0  0  0  0  0  0  0  0  0  0  0
   30.8220   23.0384   62.6650 C   0  0  0  0  0  0  0  0  0  0  0  0
   29.9398   20.7612   63.8509 O   0  0  0  0  0  0  0  0  0  0  0  0
   29.6199   21.5783   60.0020 C   0  0  0  0  0  0  0  0  0  0  0  0
   28.7594   21.3214   58.9395 C   0  0  0  0  0  0  0  0  0  0  0  0
   24.9744   19.4103   59.2896 N   0  0  0  0  0  0  0  0  0  0  0  0
   23.8471   18.7056   59.4593 C   0  0  0  0  0  0  0  0  0  0  0  0
   23.3983   17.9475   58.4489 N   0  0  0  0  0  0  0  0  0  0  0  0
   24.0605   17.8931   57.2841 C   0  0  0  0  0  0  0  0  0  0  0  0
  1  2  1  0
  2  3  2  0
  3  4  1  0
  4  5  2  0
  5  6  1  0
  6  7  1  0
  7  8  2  0
  8  9  1  0
  9 10  2  0
 10 11  1  0
 11 12  2  0
 12 13  1  0
 13 14  1  0
 14 15  2  0
 15 16  1  0
 16 17  2  0
 17 18  1  0
 18 19  1  0
 19 20  2  0
 20 21  1  0
 21 22  2  0
 22 23  1  0
 23 24  1  0
 23 25  1  0
 23 26  2  0
 22 27  1  0
 27 28  2  0
 17 29  1  0
 29 30  2  0
 30 31  1  0
 31 32  2  0
 10  2  1  0
 32 13  1  0
  9  5  1  0
 32 16  1  0
 28 19  1  0
M  END
>  <BIOSOLVEIT.HYDE_ESTIMATED_AFFINITY_LOWER_BOUNDARY [nM]>  (5) 
9.724210

>  <BIOSOLVEIT.HYDE_ESTIMATED_AFFINITY_UPPER_BOUNDARY [nM]>  (5) 
966.157743

>  <BIOSOLVEIT.HYDE_LIGAND_EFFICIENCY range: ++, +, 0, -, -->  (5) 
-

>  <BIOSOLVEIT.HYDE_LIGAND_LIPOPHILIC_EFFICIENCY range: ++, +, 0, -, -->  (5) 
-

>  <BIOSOLVEIT.INTER_CLASH range: red, yellow, green>  (5) 
yellow

>  <BIOSOLVEIT.INTRA_CLASH range: red, yellow, green>  (5) 
yellow

>  <BIOSOLVEIT.LOGP>  (5) 
4.63052

>  <BIOSOLVEIT.MOLECULAR WEIGHT>  (5) 
443.449

>  <BIOSOLVEIT.MOLECULE_CHECKSUM>  (5) 
LTQwLjAzMzQ7MS4yNTEwNA==

>  <BIOSOLVEIT.TORSION_QUALITY range: red, yellow, green, not rotatable>  (5) 
yellow

>  <BIOSOLVEIT.TPSA>  (5) 
101.38

$$$$
3MS9_MS9_3
     RDKit          3D

 12 12  0  0  0  0  0  0  0  0999 V2000
   27.0115   19.7985   57.8316 C   0  0  0  0  0  0  0  0  0  0  0  0
   25.8651   18.9843   58.0469 O   0  0  0  0  0  0  0  0  0  0  0  0
   25.2573   18.2503   57.0227 C   0  0  0  0  0  0  0  0  0  0  0  0
   25.7515   18.2566   55.8621 O   0  0  0  0  0  0  0  0  0  0  0  0
   24.0940   17.4374   57.3213 C   0  0  0  0  0  0  0  0  0  0  0  0
   23.5925   17.4442   58.6192 C   0  0  0  0  0  0  0  0  0  0  0  0
   22.4775   16.6757   58.9383 C   0  0  0  0  0  0  0  0  0  0  0  0
   21.8731   15.9041   57.9509 C   0  0  0  0  0  0  0  0  0  0  0  0
   20.4463   14.9184   58.3536 Cl  0  0  0  0  0  0  0  0  0  0  0  0
   22.3695   15.8925   56.6513 C   0  0  0  0  0  0  0  0  0  0  0  0
   23.4846   16.6634   56.3382 C   0  0  0  0  0  0  0  0  0  0  0  0
   23.9699   16.6393   55.0250 N   0  0  0  0  0  0  0  0  0  0  0  0
  1  2  1  0
  2  3  1  0
  3  4  2  0
  3  5  1  0
  5  6  2  0
  6  7  1  0
  7  8  2  0
  8  9  1  0
  8 10  1  0
 10 11  2  0
 11 12  1  0
 11  5  1  0
M  END
>  <BIOSOLVEIT.HYDE_ESTIMATED_AFFINITY_LOWER_BOUNDARY [nM]>  (6) 
804.867835

>  <BIOSOLVEIT.HYDE_ESTIMATED_AFFINITY_UPPER_BOUNDARY [nM]>  (6) 
79968.378203

>  <BIOSOLVEIT.HYDE_LIGAND_EFFICIENCY range: ++, +, 0, -, -->  (6) 
++

>  <BIOSOLVEIT.HYDE_LIGAND_LIPOPHILIC_EFFICIENCY range: ++, +, 0, -, -->  (6) 
-

>  <BIOSOLVEIT.INTER_CLASH range: red, yellow, green>  (6) 
green

>  <BIOSOLVEIT.INTRA_CLASH range: red, yellow, green>  (6) 
green

>  <BIOSOLVEIT.LOGP>  (6) 
1.7088

>  <BIOSOLVEIT.MOLECULAR WEIGHT>  (6) 
185.609

>  <BIOSOLVEIT.MOLECULE_CHECKSUM>  (6) 
LTI5LjA4NjI7Mi40MjM4NQ==

>  <BIOSOLVEIT.TORSION_QUALITY range: red, yellow, green, not rotatable>  (6) 
green

>  <BIOSOLVEIT.TPSA>  (6) 
52.32

$$$$
3K5V_STJ_1
     RDKit          3D

 27 29  0  0  0  0  0  0  0  0999 V2000
   28.0146   21.1126   60.9975 N   0  0  0  0  0  0  0  0  0  0  0  0
   27.2678   19.8929   60.9838 C   0  0  0  0  0  0  0  0  0  0  0  0
   27.2099   19.2036   62.0381 O   0  0  0  0  0  0  0  0  0  0  0  0
   26.5520   19.4355   59.7670 C   0  0  0  0  0  0  0  0  0  0  0  0
   26.9766   19.8618   58.5129 C   0  0  0  0  0  0  0  0  0  0  0  0
   26.2933   19.4226   57.3834 C   0  0  0  0  0  0  0  0  0  0  0  0
   25.2003   18.5696   57.4944 C   0  0  0  0  0  0  0  0  0  0  0  0
   24.7931   18.1552   58.7588 C   0  0  0  0  0  0  0  0  0  0  0  0
   23.6547   17.2654   58.8864 C   0  0  0  0  0  0  0  0  0  0  0  0
   23.1752   16.6130   57.7553 C   0  0  0  0  0  0  0  0  0  0  0  0
   22.0829   15.7621   57.8888 C   0  0  0  0  0  0  0  0  0  0  0  0
   21.5913   15.1005   56.7562 N   0  0  0  0  0  0  0  0  0  0  0  0
   20.3106   15.3689   56.1604 C   0  0  0  0  0  0  0  0  0  0  0  0
   20.1058   16.5663   55.4820 C   0  0  0  0  0  0  0  0  0  0  0  0
   18.8698   16.8346   54.9020 C   0  0  0  0  0  0  0  0  0  0  0  0
   17.8504   15.8945   55.0108 C   0  0  0  0  0  0  0  0  0  0  0  0
   16.6468   16.1430   54.4534 O   0  0  0  0  0  0  0  0  0  0  0  0
   16.0173   15.3380   53.4588 C   0  0  0  0  0  0  0  0  0  0  0  0
   15.8152   14.0570   53.9402 F   0  0  0  0  0  0  0  0  0  0  0  0
   16.7965   15.2954   52.3164 F   0  0  0  0  0  0  0  0  0  0  0  0
   14.7927   15.8931   53.1422 F   0  0  0  0  0  0  0  0  0  0  0  0
   18.0460   14.6945   55.6880 C   0  0  0  0  0  0  0  0  0  0  0  0
   19.2849   14.4345   56.2644 C   0  0  0  0  0  0  0  0  0  0  0  0
   21.5274   15.5965   59.0989 N   0  0  0  0  0  0  0  0  0  0  0  0
   22.0010   16.2324   60.1811 C   0  0  0  0  0  0  0  0  0  0  0  0
   23.0536   17.0563   60.0673 N   0  0  0  0  0  0  0  0  0  0  0  0
   25.4617   18.5823   59.9016 C   0  0  0  0  0  0  0  0  0  0  0  0
  1  2  1  0
  2  3  2  0
  2  4  1  0
  4  5  2  0
  5  6  1  0
  6  7  2  0
  7  8  1  0
  8  9  1  0
  9 10  2  0
 10 11  1  0
 11 12  1  0
 12 13  1  0
 13 14  2  0
 14 15  1  0
 15 16  2  0
 16 17  1  0
 17 18  1  0
 18 19  1  0
 18 20  1  0
 18 21  1  0
 16 22  1  0
 22 23  2  0
 11 24  2  0
 24 25  1  0
 25 26  2  0
  8 27  2  0
 27  4  1  0
 26  9  1  0
 23 13  1  0
M  END
>  <BIOSOLVEIT.HYDE_ESTIMATED_AFFINITY_LOWER_BOUNDARY [nM]>  (7) 
152719.375062

>  <BIOSOLVEIT.HYDE_ESTIMATED_AFFINITY_UPPER_BOUNDARY [nM]>  (7) 
15173572.860840

>  <BIOSOLVEIT.HYDE_LIGAND_EFFICIENCY range: ++, +, 0, -, -->  (7) 
--

>  <BIOSOLVEIT.HYDE_LIGAND_LIPOPHILIC_EFFICIENCY range: ++, +, 0, -, -->  (7) 
--

>  <BIOSOLVEIT.INTER_CLASH range: red, yellow, green>  (7) 
yellow

>  <BIOSOLVEIT.INTRA_CLASH range: red, yellow, green>  (7) 
green

>  <BIOSOLVEIT.LOGP>  (7) 
3.8847

>  <BIOSOLVEIT.MOLECULAR WEIGHT>  (7) 
374.321

>  <BIOSOLVEIT.MOLECULE_CHECKSUM>  (7) 
LTE2LjA4MjQ7MC41OTU2NDM=

>  <BIOSOLVEIT.TORSION_QUALITY range: red, yellow, green, not rotatable>  (7) 
red

>  <BIOSOLVEIT.TPSA>  (7) 
90.13

$$$$
3K5V_STI_3
     RDKit          3D

 37 41  0  0  0  0  0  0  0  0999 V2000
   22.2284   12.3973   56.8179 C   0  0  0  0  0  0  0  0  0  0  0  0
   20.8619   12.8488   56.3287 C   0  0  0  0  0  0  0  0  0  0  0  0
   19.8107   11.9380   56.3456 C   0  0  0  0  0  0  0  0  0  0  0  0
   18.5490   12.3236   55.9042 C   0  0  0  0  0  0  0  0  0  0  0  0
   18.3535   13.6233   55.4487 C   0  0  0  0  0  0  0  0  0  0  0  0
   17.0878   14.0214   55.0020 N   0  0  0  0  0  0  0  0  0  0  0  0
   16.7670   15.3654   54.6050 C   0  0  0  0  0  0  0  0  0  0  0  0
   17.3737   16.3353   55.1370 O   0  0  0  0  0  0  0  0  0  0  0  0
   15.6952   15.6299   53.6145 C   0  0  0  0  0  0  0  0  0  0  0  0
   15.7343   16.8005   52.8635 C   0  0  0  0  0  0  0  0  0  0  0  0
   14.7367   17.0618   51.9296 C   0  0  0  0  0  0  0  0  0  0  0  0
   13.7080   16.1396   51.7614 C   0  0  0  0  0  0  0  0  0  0  0  0
   12.6106   16.4122   50.7453 C   0  0  0  0  0  0  0  0  0  0  0  0
   11.4545   17.1270   51.3472 N   0  0  0  0  0  0  0  0  0  0  0  0
   11.4700   16.9424   52.8055 C   0  0  0  0  0  0  0  0  0  0  0  0
   10.2162   17.5357   53.4319 C   0  0  0  0  0  0  0  0  0  0  0  0
    8.9901   17.0101   52.8073 N   0  0  0  0  0  0  0  0  0  0  0  0
    8.1195   16.3770   53.8092 C   0  0  0  0  0  0  0  0  0  0  0  0
    9.2355   16.0681   51.7036 C   0  0  0  0  0  0  0  0  0  0  0  0
   10.2177   16.6500   50.7012 C   0  0  0  0  0  0  0  0  0  0  0  0
   13.6647   14.9682   52.5103 C   0  0  0  0  0  0  0  0  0  0  0  0
   14.6649   14.7115   53.4429 C   0  0  0  0  0  0  0  0  0  0  0  0
   19.3998   14.5400   55.4287 C   0  0  0  0  0  0  0  0  0  0  0  0
   20.6589   14.1473   55.8715 C   0  0  0  0  0  0  0  0  0  0  0  0
   21.7513   15.0839   55.8572 N   0  0  0  0  0  0  0  0  0  0  0  0
   22.1637   15.8108   56.9813 C   0  0  0  0  0  0  0  0  0  0  0  0
   21.4731   15.6840   58.1238 N   0  0  0  0  0  0  0  0  0  0  0  0
   21.8219   16.3555   59.2311 C   0  0  0  0  0  0  0  0  0  0  0  0
   22.9239   17.2039   59.1998 C   0  0  0  0  0  0  0  0  0  0  0  0
   23.6336   17.3291   58.0104 C   0  0  0  0  0  0  0  0  0  0  0  0
   24.7851   18.2128   57.9692 C   0  0  0  0  0  0  0  0  0  0  0  0
   25.1114   18.9637   59.0934 C   0  0  0  0  0  0  0  0  0  0  0  0
   26.2153   19.8081   59.0502 C   0  0  0  0  0  0  0  0  0  0  0  0
   26.9605   19.8740   57.8777 C   0  0  0  0  0  0  0  0  0  0  0  0
   26.6257   19.1400   56.8063 N   0  0  0  0  0  0  0  0  0  0  0  0
   25.5658   18.3178   56.8227 C   0  0  0  0  0  0  0  0  0  0  0  0
   23.2291   16.6272   56.9393 N   0  0  0  0  0  0  0  0  0  0  0  0
  1  2  1  0
  2  3  2  0
  3  4  1  0
  4  5  2  0
  5  6  1  0
  6  7  1  0
  7  8  2  0
  7  9  1  0
  9 10  2  0
 10 11  1  0
 11 12  2  0
 12 13  1  0
 13 14  1  0
 14 15  1  0
 15 16  1  0
 16 17  1  0
 17 18  1  0
 17 19  1  0
 19 20  1  0
 12 21  1  0
 21 22  2  0
  5 23  1  0
 23 24  2  0
 24 25  1  0
 25 26  1  0
 26 27  2  0
 27 28  1  0
 28 29  2  0
 29 30  1  0
 30 31  1  0
 31 32  2  0
 32 33  1  0
 33 34  2  0
 34 35  1  0
 35 36  2  0
 30 37  2  0
 24  2  1  0
 37 26  1  0
 22  9  1  0
 36 31  1  0
 20 14  1  0
M  CHG  2  14   1  17   1
M  END
>  <BIOSOLVEIT.HYDE_ESTIMATED_AFFINITY_LOWER_BOUNDARY [nM]>  (8) 
0.000105

>  <BIOSOLVEIT.HYDE_ESTIMATED_AFFINITY_UPPER_BOUNDARY [nM]>  (8) 
0.010391

>  <BIOSOLVEIT.HYDE_LIGAND_EFFICIENCY range: ++, +, 0, -, -->  (8) 
+

>  <BIOSOLVEIT.HYDE_LIGAND_LIPOPHILIC_EFFICIENCY range: ++, +, 0, -, -->  (8) 
++

>  <BIOSOLVEIT.INTER_CLASH range: red, yellow, green>  (8) 
green

>  <BIOSOLVEIT.INTRA_CLASH range: red, yellow, green>  (8) 
red

>  <BIOSOLVEIT.LOGP>  (8) 
1.75612

>  <BIOSOLVEIT.MOLECULAR WEIGHT>  (8) 
495.628

>  <BIOSOLVEIT.MOLECULE_CHECKSUM>  (8) 
LTY4LjM5MzE7MS44NDg0Ng==

>  <BIOSOLVEIT.TORSION_QUALITY range: red, yellow, green, not rotatable>  (8) 
yellow

>  <BIOSOLVEIT.TPSA>  (8) 
88.68

$$$$
3KFA_B91_3
     RDKit          3D

 41 46  0  0  0  0  0  0  0  0999 V2000
    8.3625   14.4395   52.1224 C   0  0  0  0  0  0  0  0  0  0  0  0
    9.7611   14.3336   52.7097 C   0  0  0  0  0  0  0  0  0  0  0  0
   10.8363   15.0695   52.3192 C   0  0  0  0  0  0  0  0  0  0  0  0
   11.8741   14.6601   53.0989 N   0  0  0  0  0  0  0  0  0  0  0  0
   13.1865   15.1439   53.0473 C   0  0  0  0  0  0  0  0  0  0  0  0
   14.1312   14.6391   53.9340 C   0  0  0  0  0  0  0  0  0  0  0  0
   15.4335   15.1247   53.8753 C   0  0  0  0  0  0  0  0  0  0  0  0
   16.4249   14.6140   54.7837 N   0  0  0  0  0  0  0  0  0  0  0  0
   17.5501   15.3795   55.2479 C   0  0  0  0  0  0  0  0  0  0  0  0
   17.4500   16.6325   55.3578 O   0  0  0  0  0  0  0  0  0  0  0  0
   18.7841   14.7252   55.6377 C   0  0  0  0  0  0  0  0  0  0  0  0
   18.8361   13.3373   55.7105 C   0  0  0  0  0  0  0  0  0  0  0  0
   20.0192   12.7099   56.0858 C   0  0  0  0  0  0  0  0  0  0  0  0
   21.1443   13.4702   56.3863 C   0  0  0  0  0  0  0  0  0  0  0  0
   22.4199   12.7498   56.7920 C   0  0  0  0  0  0  0  0  0  0  0  0
   21.0863   14.8584   56.3118 C   0  0  0  0  0  0  0  0  0  0  0  0
   22.2650   15.6961   56.6248 C   0  0  0  0  0  0  0  0  0  0  0  0
   22.7618   16.5780   55.7492 C   0  0  0  0  0  0  0  0  0  0  0  0
   23.8762   17.3751   56.0353 N   0  0  0  0  0  0  0  0  0  0  0  0
   24.9044   17.6117   55.1711 C   0  0  0  0  0  0  0  0  0  0  0  0
   25.7659   18.3964   55.7802 N   0  0  0  0  0  0  0  0  0  0  0  0
   25.2965   18.6680   57.0339 C   0  0  0  0  0  0  0  0  0  0  0  0
   25.7505   19.4141   58.1157 C   0  0  0  0  0  0  0  0  0  0  0  0
   26.9668   20.1022   58.0281 N   0  0  0  0  0  0  0  0  0  0  0  0
   27.9934   20.3280   59.0619 C   0  0  0  0  0  0  0  0  0  0  0  0
   27.6876   19.5669   60.3196 C   0  0  0  0  0  0  0  0  0  0  0  0
   27.4383   21.0469   60.2576 C   0  0  0  0  0  0  0  0  0  0  0  0
   25.0376   19.4863   59.2509 N   0  0  0  0  0  0  0  0  0  0  0  0
   23.8679   18.8464   59.3864 C   0  0  0  0  0  0  0  0  0  0  0  0
   23.4048   18.1183   58.3606 N   0  0  0  0  0  0  0  0  0  0  0  0
   24.0947   18.0299   57.2139 C   0  0  0  0  0  0  0  0  0  0  0  0
   19.9056   15.4915   55.9371 C   0  0  0  0  0  0  0  0  0  0  0  0
   15.7969   16.0990   52.9513 C   0  0  0  0  0  0  0  0  0  0  0  0
   14.8323   16.5871   52.0765 C   0  0  0  0  0  0  0  0  0  0  0  0
   15.2104   17.6523   51.0602 C   0  0  0  0  0  0  0  0  0  0  0  0
   15.0251   18.9185   51.5877 F   0  0  0  0  0  0  0  0  0  0  0  0
   16.5398   17.4985   50.7140 F   0  0  0  0  0  0  0  0  0  0  0  0
   14.4322   17.5419   49.9207 F   0  0  0  0  0  0  0  0  0  0  0  0
   13.5232   16.1181   52.1137 C   0  0  0  0  0  0  0  0  0  0  0  0
   11.4066   13.6939   53.9389 C   0  0  0  0  0  0  0  0  0  0  0  0
   10.1301   13.4878   53.7130 N   0  0  0  0  0  0  0  0  0  0  0  0
  1  2  1  0
  2  3  2  0
  3  4  1  0
  4  5  1  0
  5  6  2  0
  6  7  1  0
  7  8  1  0
  8  9  1  0
  9 10  2  0
  9 11  1  0
 11 12  2  0
 12 13  1  0
 13 14  2  0
 14 15  1  0
 14 16  1  0
 16 17  1  0
 17 18  2  0
 18 19  1  0
 19 20  1  0
 20 21  2  0
 21 22  1  0
 22 23  2  0
 23 24  1  0
 24 25  1  0
 25 26  1  0
 26 27  1  0
 23 28  1  0
 28 29  2  0
 29 30  1  0
 30 31  2  0
 16 32  2  0
  7 33  2  0
 33 34  1  0
 34 35  1  0
 35 36  1  0
 35 37  1  0
 35 38  1  0
 34 39  2  0
  4 40  1  0
 40 41  2  0
 41  2  1  0
 39  5  1  0
 32 11  1  0
 31 19  1  0
 31 22  1  0
 27 25  1  0
M  END
>  <BIOSOLVEIT.HYDE_ESTIMATED_AFFINITY_LOWER_BOUNDARY [nM]>  (9) 
0.000017

>  <BIOSOLVEIT.HYDE_ESTIMATED_AFFINITY_UPPER_BOUNDARY [nM]>  (9) 
0.001676

>  <BIOSOLVEIT.HYDE_LIGAND_EFFICIENCY range: ++, +, 0, -, -->  (9) 
+

>  <BIOSOLVEIT.HYDE_LIGAND_LIPOPHILIC_EFFICIENCY range: ++, +, 0, -, -->  (9) 
++

>  <BIOSOLVEIT.INTER_CLASH range: red, yellow, green>  (9) 
yellow

>  <BIOSOLVEIT.INTRA_CLASH range: red, yellow, green>  (9) 
yellow

>  <BIOSOLVEIT.LOGP>  (9) 
6.10214

>  <BIOSOLVEIT.MOLECULAR WEIGHT>  (9) 
558.565

>  <BIOSOLVEIT.MOLECULE_CHECKSUM>  (9) 
LTcyLjkxNjU7MS43Nzg0NQ==

>  <BIOSOLVEIT.TORSION_QUALITY range: red, yellow, green, not rotatable>  (9) 
red

>  <BIOSOLVEIT.TPSA>  (9) 
102.55

$$$$
