@<TRIPOS>MOLECULE
UNK
20 20 0 0 0
SMALL
GASTEIGER

@<TRIPOS>ATOM
   1    C       -2.6540   68.6340   32.7270 C.3   1 UNL  0.0810
   2    O       -2.5060   67.2210   32.6650 O.3   1 UNL -0.4654
   3    C       -3.4110   66.3970   31.9870 C.2   1 UNL  0.3395
   4    O       -4.4250   66.8970   31.4280 O.2   1 UNL -0.2461
   5    C       -3.2050   64.9610   31.9860 C.ar  1 UNL  0.0826
   6    C       -3.9410   64.1840   31.0970 C.ar  1 UNL -0.0441
   7    C       -3.7660   62.8040   31.0700 C.ar  1 UNL -0.0425
   8    C       -2.8530   62.2130   31.9380 C.ar  1 UNL  0.0426
   9   Cl       -2.6260   60.4470   31.9090 Cl    1 UNL -0.0843
  10    C       -2.1150   62.9840   32.8300 C.ar  1 UNL -0.0196
  11    C       -2.2930   64.3640   32.8510 C.ar  1 UNL  0.0476
  12    N       -1.5410   65.1240   33.7550 N.2   1 UNL -0.3980
  13    H       -2.6874   68.9534   33.7791 H     1 UNL  0.0670
  14    H       -1.8013   69.1144   32.2249 H     1 UNL  0.0670
  15    H       -3.5878   68.9273   32.2249 H     1 UNL  0.0670
  16    H       -4.6611   64.6606   30.4156 H     1 UNL  0.0633
  17    H       -4.3446   62.1853   30.3683 H     1 UNL  0.0639
  18    H       -1.3968   62.5069   33.5130 H     1 UNL  0.0661
  19    H       -0.8718   64.6602   34.3858 H     1 UNL  0.1562
  20    H       -1.6570   66.1469   33.7892 H     1 UNL  0.1562
@<TRIPOS>BOND
    1     2     1  1
    2     3     2  1
    3     4     3  2
    4     5     3  1
    5     6     5 ar
    6     7     6 ar
    7     8     7 ar
    8     9     8  1
    9    10     8 ar
   10    11     5 ar
   11    11    10 ar
   12    12    11  1
   13     1    13  1
   14     1    14  1
   15     1    15  1
   16     6    16  1
   17     7    17  1
   18    10    18  1
   19    12    19  1
   20    12    20  1