@<TRIPOS>MOLECULE
UNK
50 53 0 0 0
SMALL
GASTEIGER

@<TRIPOS>ATOM
   1    O       22.5130   43.0890   54.1680 O.2   1 UNL -0.2689
   2    C       21.5880   43.4900   54.9270 C.2   1 UNL  0.2567
   3    N       20.2740   42.9180   54.8140 N.am  1 UNL -0.3219
   4    C       19.7300   42.4040   53.5860 C.ar  1 UNL  0.0413
   5    C       18.9700   41.2380   53.6060 C.ar  1 UNL -0.0348
   6    C       18.4390   40.7330   52.4230 C.ar  1 UNL -0.0175
   7    C       18.6790   41.4070   51.2300 C.ar  1 UNL  0.1291
   8    O       18.1700   40.9270   50.0750 O.3   1 UNL -0.4058
   9    C       17.4970   39.6790   49.9270 C.3   1 UNL  0.5726
  10    F       16.3740   39.6440   50.7340 F     1 UNL -0.1323
  11    F       18.3460   38.6380   50.2560 F     1 UNL -0.1323
  12    F       17.1040   39.5350   48.6110 F     1 UNL -0.1323
  13    C       19.4380   42.5730   51.2000 C.ar  1 UNL -0.0175
  14    C       19.9640   43.0700   52.3880 C.ar  1 UNL -0.0348
  15    C       21.8860   44.5100   55.9620 C.ar  1 UNL  0.0588
  16    C       20.8930   45.3350   56.4810 C.ar  1 UNL  0.0421
  17    N       21.1790   46.2520   57.4180 N.ar  1 UNL -0.2378
  18    C       22.4250   46.4090   57.8880 C.ar  1 UNL  0.1362
  19    N       22.6880   47.3770   58.8650 N.2   1 UNL -0.3534
  20    C       22.7680   47.1240   60.3090 C.3   1 UNL  0.0218
  21    C       23.8830   48.0580   60.7300 C.3   1 UNL -0.0075
  22    C       23.7120   49.2840   59.8470 C.3   1 UNL  0.0732
  23    O       22.9510   50.2850   60.5070 O.3   1 UNL -0.3912
  24    C       22.9350   48.7970   58.6370 C.3   1 UNL  0.0453
  25    C       23.4570   45.6110   57.4040 C.ar  1 UNL  0.0282
  26    C       24.8170   45.7520   57.8870 C.ar  1 UNL  0.0221
  27    C       25.3880   44.7820   58.7050 C.ar  1 UNL  0.0382
  28    N       26.6480   44.9300   59.1400 N.ar  1 UNL -0.2442
  29    C       27.3780   46.0030   58.8010 C.ar  1 UNL  0.1148
  30    N       26.8510   46.9520   58.0130 N.ar  1 UNL -0.2442
  31    C       25.5970   46.8520   57.5510 C.ar  1 UNL  0.0382
  32    C       23.1870   44.6520   56.4330 C.ar  1 UNL -0.0362
  33    H       19.6890   42.8738   55.6606 H     1 UNL  0.1698
  34    H       18.7891   40.7157   54.5570 H     1 UNL  0.0646
  35    H       17.8370   39.8124   52.4311 H     1 UNL  0.0663
  36    H       19.6197   43.0950   50.2490 H     1 UNL  0.0663
  37    H       20.5657   43.9908   52.3797 H     1 UNL  0.0646
  38    H       19.8594   45.2341   56.1183 H     1 UNL  0.0849
  39    H       21.8231   47.3770   60.8122 H     1 UNL  0.0494
  40    H       22.9512   46.0701   60.5655 H     1 UNL  0.0494
  41    H       23.7834   48.3275   61.7918 H     1 UNL  0.0312
  42    H       24.8761   47.5987   60.6174 H     1 UNL  0.0312
  43    H       24.6864   49.7239   59.5881 H     1 UNL  0.0620
  44    H       23.0367   50.1723   61.4868 H     1 UNL  0.2105
  45    H       23.5256   48.9402   57.7201 H     1 UNL  0.0521
  46    H       21.9956   49.3548   58.5091 H     1 UNL  0.0521
  47    H       24.8064   43.8944   58.9947 H     1 UNL  0.0848
  48    H       28.4095   46.1048   59.1694 H     1 UNL  0.1062
  49    H       25.1847   47.6413   56.9052 H     1 UNL  0.0848
  50    H       23.9930   44.0135   56.0423 H     1 UNL  0.0640
@<TRIPOS>BOND
    1     2     1  2
    2     3     2 am
    3     4     3  1
    4     5     4 ar
    5     6     5 ar
    6     7     6 ar
    7     8     7  1
    8     9     8  1
    9    10     9  1
   10    11     9  1
   11    12     9  1
   12    13     7 ar
   13    14    13 ar
   14    14     4 ar
   15    15     2  1
   16    16    15 ar
   17    17    16 ar
   18    18    17 ar
   19    19    18  1
   20    20    19  1
   21    21    20  1
   22    22    21  1
   23    23    22  1
   24    24    19  1
   25    24    22  1
   26    25    18 ar
   27    26    25  1
   28    27    26 ar
   29    28    27 ar
   30    29    28 ar
   31    30    29 ar
   32    31    30 ar
   33    31    26 ar
   34    32    25 ar
   35    32    15 ar
   36     3    33  1
   37     5    34  1
   38     6    35  1
   39    13    36  1
   40    14    37  1
   41    16    38  1
   42    20    39  1
   43    20    40  1
   44    21    41  1
   45    21    42  1
   46    22    43  1
   47    23    44  1
   48    24    45  1
   49    24    46  1
   50    27    47  1
   51    29    48  1
   52    31    49  1
   53    32    50  1