@<TRIPOS>MOLECULE
UNK
48 51 0 0 0
SMALL
GASTEIGER

@<TRIPOS>ATOM
   1    C      -13.0970    0.7890   22.4880 C.3   1 UNL  0.0775
   2    O      -13.2450    2.1600   22.8440 O.3   1 UNL -0.4961
   3    C      -14.3950    2.8600   22.7400 C.ar  1 UNL  0.1263
   4    C      -15.5660    2.1760   22.4320 C.ar  1 UNL -0.0193
   5    C      -16.7670    2.8690   22.3170 C.ar  1 UNL -0.0585
   6    C      -16.7970    4.2460   22.5090 C.ar  1 UNL -0.0614
   7    C      -15.6260    4.9310   22.8170 C.ar  1 UNL -0.0506
   8    C      -14.4250    4.2380   22.9320 C.ar  1 UNL  0.0259
   9    C      -13.2030    4.9530   23.2530 C.ar  1 UNL  0.0124
  10    C      -13.0360    5.7740   24.3290 C.ar  1 UNL  0.0112
  11    N      -11.7580    6.2460   24.2720 N.ar  1 UNL -0.3455
  12    C      -11.1220    5.7310   23.1680 C.ar  1 UNL  0.1374
  13    N       -9.8910    5.8630   22.6490 N.ar  1 UNL -0.2379
  14    C       -9.5140    5.2250   21.5290 C.ar  1 UNL  0.0372
  15    C      -10.3850    4.3860   20.8390 C.ar  1 UNL  0.0023
  16    C      -10.0170    3.6770   19.6290 C.ar  1 UNL  0.0024
  17    C      -10.9620    3.3640   18.6570 C.ar  1 UNL  0.0347
  18    N      -10.6030    2.7080   17.5430 N.ar  1 UNL -0.2633
  19    C       -9.3320    2.3340   17.3300 C.ar  1 UNL  0.0396
  20    C       -8.3480    2.6220   18.2690 C.ar  1 UNL  0.0584
  21    C       -6.9420    2.2190   18.0540 C.2   1 UNL  0.2544
  22    O       -6.0920    3.1090   17.7720 O.2   1 UNL -0.2690
  23    N       -6.5230    0.8430   18.1500 N.am  1 UNL -0.3447
  24    C       -5.1400    0.4950   17.8150 C.3   1 UNL  0.0091
  25    C       -7.5030   -0.2150   18.4180 C.3   1 UNL  0.0091
  26    C       -8.6930    3.3010   19.4330 C.ar  1 UNL -0.0384
  27    C      -11.6680    4.2270   21.3470 C.ar  1 UNL -0.0411
  28    C      -12.0010    4.9110   22.5090 C.ar  1 UNL  0.0273
  29    H      -13.0311    0.1783   23.4005 H     1 UNL  0.0669
  30    H      -13.9658    0.4685   21.8943 H     1 UNL  0.0669
  31    H      -12.1799    0.6613   21.8943 H     1 UNL  0.0669
  32    H      -15.5427    1.0869   22.2793 H     1 UNL  0.0662
  33    H      -17.6931    2.3275   22.0741 H     1 UNL  0.0624
  34    H      -17.7466    4.7936   22.4173 H     1 UNL  0.0623
  35    H      -15.6496    6.0201   22.9696 H     1 UNL  0.0631
  36    H      -13.7882    6.0102   25.0960 H     1 UNL  0.0823
  37    H      -11.3334    6.8911   24.9535 H     1 UNL  0.1675
  38    H       -8.4923    5.3687   21.1475 H     1 UNL  0.0847
  39    H      -12.0122    3.6568   18.8030 H     1 UNL  0.0847
  40    H       -9.0672    1.7966   16.4074 H     1 UNL  0.0848
  41    H       -4.5639    0.3500   18.7408 H     1 UNL  0.0457
  42    H       -5.1280   -0.4342   17.2263 H     1 UNL  0.0457
  43    H       -4.6897    1.3078   17.2263 H     1 UNL  0.0457
  44    H       -7.6192   -0.3405   19.5046 H     1 UNL  0.0457
  45    H       -8.4713    0.0614   17.9752 H     1 UNL  0.0457
  46    H       -7.1534   -1.1593   17.9752 H     1 UNL  0.0457
  47    H       -7.9287    3.5372   20.1880 H     1 UNL  0.0639
  48    H      -12.3994    3.5779   20.8434 H     1 UNL  0.0638
@<TRIPOS>BOND
    1     2     1  1
    2     3     2  1
    3     4     3 ar
    4     5     4 ar
    5     6     5 ar
    6     7     6 ar
    7     8     7 ar
    8     8     3 ar
    9     9     8  1
   10    10     9 ar
   11    11    10 ar
   12    12    11 ar
   13    13    12 ar
   14    14    13 ar
   15    15    14 ar
   16    16    15  1
   17    17    16 ar
   18    18    17 ar
   19    19    18 ar
   20    20    19 ar
   21    21    20  1
   22    22    21  2
   23    23    21 am
   24    24    23  1
   25    25    23  1
   26    26    20 ar
   27    26    16 ar
   28    27    15 ar
   29    28    27 ar
   30    28     9 ar
   31    28    12 ar
   32     1    29  1
   33     1    30  1
   34     1    31  1
   35     4    32  1
   36     5    33  1
   37     6    34  1
   38     7    35  1
   39    10    36  1
   40    11    37  1
   41    14    38  1
   42    17    39  1
   43    19    40  1
   44    24    41  1
   45    24    42  1
   46    24    43  1
   47    25    44  1
   48    25    45  1
   49    25    46  1
   50    26    47  1
   51    27    48  1