@<TRIPOS>MOLECULE
UNK
40 42 0 0 0
SMALL
GASTEIGER

@<TRIPOS>ATOM
   1    N       25.1260   46.7990   50.5190 N.am  1 UNL -0.3656
   2    C       25.3790   45.7320   51.4360 C.2   1 UNL  0.2482
   3    O       25.6240   44.5820   50.9800 O.2   1 UNL -0.2696
   4    C       25.3430   45.9460   52.9040 C.ar  1 UNL  0.0397
   5    C       26.3730   46.6440   53.5270 C.ar  1 UNL -0.0494
   6    C       26.3220   46.8350   54.9040 C.ar  1 UNL -0.0608
   7    C       25.2620   46.3400   55.6570 C.ar  1 UNL -0.0528
   8    C       24.2430   45.6450   55.0130 C.ar  1 UNL  0.0011
   9    C       23.1330   45.1250   55.7880 C.ar  1 UNL  0.0757
  10    C       21.8690   45.0740   55.2100 C.ar  1 UNL  0.0072
  11    C       20.8110   44.5730   55.9620 C.ar  1 UNL  0.1338
  12    N       19.5340   44.5180   55.3900 N.pl3 1 UNL -0.3401
  13    C       19.2130   43.7640   54.2090 C.ar  1 UNL  0.0398
  14    C       17.9740   43.1390   54.1070 C.ar  1 UNL -0.0349
  15    C       17.6550   42.4070   52.9680 C.ar  1 UNL -0.0175
  16    C       18.5870   42.3110   51.9400 C.ar  1 UNL  0.1291
  17    O       18.2900   41.6040   50.8290 O.3   1 UNL -0.4058
  18    C       18.8240   40.3230   50.5010 C.3   1 UNL  0.5726
  19    F       18.4990   39.4040   51.4830 F     1 UNL -0.1323
  20    F       18.3330   39.9010   49.2780 F     1 UNL -0.1323
  21    F       20.2000   40.4190   50.4200 F     1 UNL -0.1323
  22    C       19.8290   42.9320   52.0330 C.ar  1 UNL -0.0175
  23    C       20.1390   43.6620   53.1750 C.ar  1 UNL -0.0349
  24    N       21.0410   44.1560   57.2160 N.ar  1 UNL -0.2193
  25    C       22.2660   44.2110   57.7610 C.ar  1 UNL  0.1180
  26    N       23.2950   44.6920   57.0470 N.ar  1 UNL -0.2362
  27    C       24.2740   45.4430   53.6370 C.ar  1 UNL -0.0400
  28    H       24.9240   47.7450   50.8727 H     1 UNL  0.1595
  29    H       25.1457   46.6218   49.5046 H     1 UNL  0.1595
  30    H       27.2150   47.0388   52.9395 H     1 UNL  0.0631
  31    H       27.1318   47.3856   55.4050 H     1 UNL  0.0623
  32    H       25.2300   46.4958   56.7454 H     1 UNL  0.0630
  33    H       21.7090   45.4227   54.1791 H     1 UNL  0.0685
  34    H       18.7781   45.0507   55.8435 H     1 UNL  0.1681
  35    H       17.2464   43.2238   54.9276 H     1 UNL  0.0646
  36    H       16.6775   41.9101   52.8813 H     1 UNL  0.0663
  37    H       20.5568   42.8463   51.2127 H     1 UNL  0.0663
  38    H       21.1165   44.1591   53.2613 H     1 UNL  0.0646
  39    H       22.4263   43.8622   58.7918 H     1 UNL  0.1064
  40    H       23.4639   44.8929   53.1358 H     1 UNL  0.0638
@<TRIPOS>BOND
    1     2     1 am
    2     3     2  2
    3     4     2  1
    4     5     4 ar
    5     6     5 ar
    6     7     6 ar
    7     8     7 ar
    8     9     8  1
    9    10     9 ar
   10    11    10 ar
   11    12    11  1
   12    13    12  1
   13    14    13 ar
   14    15    14 ar
   15    16    15 ar
   16    17    16  1
   17    18    17  1
   18    19    18  1
   19    20    18  1
   20    21    18  1
   21    22    16 ar
   22    23    22 ar
   23    23    13 ar
   24    24    11 ar
   25    25    24 ar
   26    26    25 ar
   27    26     9 ar
   28    27     4 ar
   29    27     8 ar
   30     1    28  1
   31     1    29  1
   32     5    30  1
   33     6    31  1
   34     7    32  1
   35    10    33  1
   36    12    34  1
   37    14    35  1
   38    15    36  1
   39    22    37  1
   40    23    38  1
   41    25    39  1
   42    27    40  1