@<TRIPOS>MOLECULE
UNK
47 50 0 0 0
SMALL
GASTEIGER

@<TRIPOS>ATOM
   1    C       14.0210   60.6990    2.9280 C.3   1 UNL -0.0377
   2    C       13.1060   61.8530    3.3080 C.ar  1 UNL -0.0273
   3    C       11.7380   61.7170    3.1020 C.ar  1 UNL -0.0552
   4    C       10.8770   62.7560    3.4410 C.ar  1 UNL -0.0381
   5    C       11.3990   63.9250    3.9850 C.ar  1 UNL  0.0431
   6    N       10.5420   64.9770    4.3290 N.am  1 UNL -0.3219
   7    C       10.3370   65.4370    5.6740 C.2   1 UNL  0.2567
   8    O       11.2730   65.3360    6.5140 O.2   1 UNL -0.2689
   9    C        9.0530   66.0590    6.0780 C.ar  1 UNL  0.0580
  10    C        9.0640   67.2790    6.7460 C.ar  1 UNL -0.0464
  11    C        7.8580   67.8600    7.1220 C.ar  1 UNL -0.0430
  12    C        6.6740   67.1980    6.8160 C.ar  1 UNL  0.0268
  13    N        6.6890   66.0220    6.1710 N.ar  1 UNL -0.2639
  14    C        7.8390   65.4410    5.7970 C.ar  1 UNL  0.0395
  15    C       12.7670   64.0680    4.1940 C.ar  1 UNL -0.0145
  16    C       13.6220   63.0250    3.8530 C.ar  1 UNL  0.0459
  17    N       15.0420   63.1580    4.0630 N.pl3 1 UNL -0.3238
  18    C       15.8690   63.9870    3.2950 C.ar  1 UNL  0.2272
  19    N       17.0900   63.5490    2.9560 N.ar  1 UNL -0.2213
  20    C       17.9250   64.2990    2.2220 C.ar  1 UNL  0.0330
  21    C       17.5210   65.5620    1.8010 C.ar  1 UNL -0.0171
  22    C       16.2530   66.0080    2.1580 C.ar  1 UNL  0.0773
  23    C       15.8230   67.3250    1.7220 C.ar  1 UNL  0.0187
  24    C       16.7470   68.1890    1.1440 C.ar  1 UNL -0.0497
  25    C       16.3310   69.4490    0.7280 C.ar  1 UNL -0.0431
  26    C       14.9980   69.8050    0.9030 C.ar  1 UNL  0.0268
  27    N       14.1260   68.9540    1.4630 N.ar  1 UNL -0.2640
  28    C       14.5020   67.7330    1.8730 C.ar  1 UNL  0.0362
  29    N       15.4680   65.2040    2.8940 N.ar  1 UNL -0.2127
  30    H       14.4026   60.2178    3.8406 H     1 UNL  0.0280
  31    H       13.4573   59.9643    2.3343 H     1 UNL  0.0280
  32    H       14.8649   61.0803    2.3343 H     1 UNL  0.0280
  33    H       11.3363   60.7881    2.6710 H     1 UNL  0.0627
  34    H        9.7936   62.6540    3.2803 H     1 UNL  0.0645
  35    H       10.0275   65.4495    3.5721 H     1 UNL  0.1698
  36    H       10.0168   67.7790    6.9744 H     1 UNL  0.0632
  37    H        7.8408   68.8243    7.6511 H     1 UNL  0.0639
  38    H        5.7119   67.6449    7.1069 H     1 UNL  0.0840
  39    H        7.8218   64.4765    5.2684 H     1 UNL  0.0848
  40    H       13.1687   64.9970    4.6248 H     1 UNL  0.0667
  41    H       15.4734   62.6115    4.8221 H     1 UNL  0.1697
  42    H       18.9219   63.9184    1.9548 H     1 UNL  0.0842
  43    H       18.1901   66.1942    1.1988 H     1 UNL  0.0662
  44    H       17.7948   67.8792    1.0174 H     1 UNL  0.0631
  45    H       17.0429   70.1509    0.2691 H     1 UNL  0.0639
  46    H       14.6544   70.7980    0.5777 H     1 UNL  0.0840
  47    H       13.7655   67.0547    2.3285 H     1 UNL  0.0847
@<TRIPOS>BOND
    1     2     1  1
    2     3     2 ar
    3     4     3 ar
    4     5     4 ar
    5     6     5  1
    6     7     6 am
    7     8     7  2
    8     9     7  1
    9    10     9 ar
   10    11    10 ar
   11    12    11 ar
   12    13    12 ar
   13    14    13 ar
   14    14     9 ar
   15    15     5 ar
   16    16    15 ar
   17    16     2 ar
   18    17    16  1
   19    18    17  1
   20    19    18 ar
   21    20    19 ar
   22    21    20 ar
   23    22    21 ar
   24    23    22  1
   25    24    23 ar
   26    25    24 ar
   27    26    25 ar
   28    27    26 ar
   29    28    27 ar
   30    28    23 ar
   31    29    18 ar
   32    29    22 ar
   33     1    30  1
   34     1    31  1
   35     1    32  1
   36     3    33  1
   37     4    34  1
   38     6    35  1
   39    10    36  1
   40    11    37  1
   41    12    38  1
   42    14    39  1
   43    15    40  1
   44    17    41  1
   45    20    42  1
   46    21    43  1
   47    24    44  1
   48    25    45  1
   49    26    46  1
   50    28    47  1