@<TRIPOS>MOLECULE
UNK
70 74 0 0 0
SMALL
GASTEIGER

@<TRIPOS>ATOM
   1    C       18.2490   23.0500   41.0850 C.3   1 UNL -0.0377
   2    C       18.1460   22.6650   42.5520 C.ar  1 UNL -0.0273
   3    C       18.8040   23.4460   43.4970 C.ar  1 UNL -0.0552
   4    C       18.7270   23.1180   44.8460 C.ar  1 UNL -0.0381
   5    C       17.9880   22.0060   45.2370 C.ar  1 UNL  0.0431
   6    N       17.9020   21.6580   46.6290 N.am  1 UNL -0.3219
   7    C       17.8310   20.3030   47.1130 C.2   1 UNL  0.2552
   8    O       17.8430   19.3420   46.2950 O.2   1 UNL -0.2689
   9    C       17.7510   20.0060   48.5640 C.ar  1 UNL  0.0397
  10    C       17.2910   18.7620   48.9810 C.ar  1 UNL -0.0490
  11    C       17.2120   18.4690   50.3390 C.ar  1 UNL -0.0526
  12    C       17.5990   19.4340   51.2640 C.ar  1 UNL  0.0062
  13    C       17.5170   19.1280   52.7510 C.3   1 UNL  0.1031
  14    N       18.5380   18.1380   53.1680 N.4   1 UNL -0.3219
  15    C       19.0350   18.5080   54.5020 C.3   1 UNL  0.1273
  16    C       19.4880   17.2760   55.2720 C.3   1 UNL  0.1268
  17    N       18.3450   16.4040   55.5790 N.4   1 UNL -0.3281
  18    C       17.6940   16.7830   56.8420 C.3   1 UNL  0.0668
  19    C       17.3360   16.4450   54.5110 C.3   1 UNL  0.1268
  20    C       17.9960   16.7690   53.1790 C.3   1 UNL  0.1273
  21    C       18.0590   20.6800   50.8510 C.ar  1 UNL -0.0526
  22    C       18.1360   20.9680   49.4920 C.ar  1 UNL -0.0490
  23    C       17.3260   21.2200   44.2980 C.ar  1 UNL -0.0145
  24    C       17.4080   21.5550   42.9500 C.ar  1 UNL  0.0459
  25    N       16.7480   20.7740   41.9940 N.pl3 1 UNL -0.3238
  26    C       16.5520   19.3590   42.1230 C.ar  1 UNL  0.2272
  27    N       17.2780   18.5320   41.3570 N.ar  1 UNL -0.2213
  28    C       17.1360   17.2000   41.4350 C.ar  1 UNL  0.0330
  29    C       16.2180   16.6590   42.3280 C.ar  1 UNL -0.0171
  30    C       15.4690   17.5250   43.1180 C.ar  1 UNL  0.0773
  31    C       14.5080   16.9690   44.0540 C.ar  1 UNL  0.0187
  32    C       13.3090   17.6360   44.2800 C.ar  1 UNL -0.0497
  33    C       12.3900   17.0990   45.1750 C.ar  1 UNL -0.0431
  34    C       12.7030   15.9070   45.8190 C.ar  1 UNL  0.0268
  35    N       13.8670   15.2820   45.5850 N.ar  1 UNL -0.2640
  36    C       14.7690   15.7790   44.7250 C.ar  1 UNL  0.0362
  37    N       15.6620   18.8480   42.9890 N.ar  1 UNL -0.2127
  38    H       18.5325   24.1097   41.0031 H     1 UNL  0.0280
  39    H       19.0121   22.4273   40.5952 H     1 UNL  0.0280
  40    H       17.2769   22.8916   40.5952 H     1 UNL  0.0280
  41    H       19.3853   24.3232   43.1768 H     1 UNL  0.0627
  42    H       19.2455   23.7320   45.5971 H     1 UNL  0.0645
  43    H       17.8905   22.4215   47.3203 H     1 UNL  0.1698
  44    H       16.9895   18.0095   48.2375 H     1 UNL  0.0631
  45    H       16.8484   17.4874   50.6770 H     1 UNL  0.0628
  46    H       17.6734   20.0594   53.3150 H     1 UNL  0.0979
  47    H       16.5242   18.7017   52.9574 H     1 UNL  0.0979
  48    H       19.3111   18.1490   52.4875 H     1 UNL  0.3483
  49    H       19.8854   19.1969   54.3915 H     1 UNL  0.0985
  50    H       18.2197   18.9918   55.0598 H     1 UNL  0.0985
  51    H       20.2148   16.7175   54.6639 H     1 UNL  0.0985
  52    H       19.9487   17.5999   56.2169 H     1 UNL  0.0985
  53    H       18.7264   15.4508   55.6621 H     1 UNL  0.3477
  54    H       18.3014   16.4294   57.6881 H     1 UNL  0.0886
  55    H       17.5987   17.8778   56.8913 H     1 UNL  0.0886
  56    H       16.6949   16.3254   56.8913 H     1 UNL  0.0886
  57    H       16.8394   15.4659   54.4421 H     1 UNL  0.0985
  58    H       16.5963   17.2248   54.7449 H     1 UNL  0.0985
  59    H       17.2495   16.6730   52.3768 H     1 UNL  0.0985
  60    H       18.8275   16.0657   53.0240 H     1 UNL  0.0985
  61    H       18.3600   21.4330   51.5942 H     1 UNL  0.0628
  62    H       18.4989   21.9498   49.1537 H     1 UNL  0.0631
  63    H       16.7441   20.3432   44.6183 H     1 UNL  0.0667
  64    H       16.3831   21.2411   41.1517 H     1 UNL  0.1697
  65    H       17.7420   16.5404   40.7965 H     1 UNL  0.0842
  66    H       16.0868   15.5698   42.4081 H     1 UNL  0.0662
  67    H       13.0898   18.5783   43.7565 H     1 UNL  0.0631
  68    H       11.4341   17.6073   45.3697 H     1 UNL  0.0639
  69    H       11.9864   15.4704   46.5302 H     1 UNL  0.0840
  70    H       15.7149   15.2453   44.5506 H     1 UNL  0.0847
@<TRIPOS>BOND
    1     2     1  1
    2     3     2 ar
    3     4     3 ar
    4     5     4 ar
    5     6     5  1
    6     7     6 am
    7     8     7  2
    8     9     7  1
    9    10     9 ar
   10    11    10 ar
   11    12    11 ar
   12    13    12  1
   13    14    13  1
   14    15    14  1
   15    16    15  1
   16    17    16  1
   17    18    17  1
   18    19    17  1
   19    20    14  1
   20    20    19  1
   21    21    12 ar
   22    22     9 ar
   23    22    21 ar
   24    23     5 ar
   25    24    23 ar
   26    24     2 ar
   27    25    24  1
   28    26    25  1
   29    27    26 ar
   30    28    27 ar
   31    29    28 ar
   32    30    29 ar
   33    31    30  1
   34    32    31 ar
   35    33    32 ar
   36    34    33 ar
   37    35    34 ar
   38    36    35 ar
   39    36    31 ar
   40    37    30 ar
   41    37    26 ar
   42     1    38  1
   43     1    39  1
   44     1    40  1
   45     3    41  1
   46     4    42  1
   47     6    43  1
   48    10    44  1
   49    11    45  1
   50    13    46  1
   51    13    47  1
   52    14    48  1
   53    15    49  1
   54    15    50  1
   55    16    51  1
   56    16    52  1
   57    17    53  1
   58    18    54  1
   59    18    55  1
   60    18    56  1
   61    19    57  1
   62    19    58  1
   63    20    59  1
   64    20    60  1
   65    21    61  1
   66    22    62  1
   67    23    63  1
   68    25    64  1
   69    28    65  1
   70    29    66  1
   71    32    67  1
   72    33    68  1
   73    34    69  1
   74    36    70  1