@<TRIPOS>MOLECULE
UNK
47 49 0 0 0
SMALL
GASTEIGER

@<TRIPOS>ATOM
   1    O       22.2030   43.0050   53.4840 O.2   1 UNL -0.2689
   2    C       21.3710   43.0280   54.4330 C.2   1 UNL  0.2552
   3    N       20.2660   42.1080   54.4330 N.am  1 UNL -0.3220
   4    C       19.6530   41.5970   53.2360 C.ar  1 UNL  0.0413
   5    C       20.4520   41.0610   52.2310 C.ar  1 UNL -0.0348
   6    C       19.8680   40.5640   51.0700 C.ar  1 UNL -0.0175
   7    C       18.4850   40.6100   50.9320 C.ar  1 UNL  0.1291
   8    O       17.9060   40.1310   49.8100 O.3   1 UNL -0.4058
   9    C       17.5600   38.7670   49.5790 C.3   1 UNL  0.5726
  10    F       16.6600   38.3630   50.5460 F     1 UNL -0.1323
  11    F       16.9710   38.6280   48.3360 F     1 UNL -0.1323
  12    F       18.6880   37.9690   49.6590 F     1 UNL -0.1323
  13    C       17.6780   41.1440   51.9320 C.ar  1 UNL -0.0175
  14    C       18.2700   41.6390   53.0900 C.ar  1 UNL -0.0348
  15    C       21.5760   43.9700   55.5610 C.ar  1 UNL  0.0402
  16    C       21.9620   45.2820   55.3060 C.ar  1 UNL -0.0494
  17    C       22.1490   46.1510   56.3760 C.ar  1 UNL -0.0610
  18    C       21.9560   45.7250   57.6860 C.ar  1 UNL -0.0534
  19    C       21.5700   44.4090   57.9180 C.ar  1 UNL  0.0070
  20    C       21.3560   43.9320   59.3460 C.3   1 UNL  0.1029
  21    N       19.9610   44.1510   59.7970 N.4   1 UNL -0.3274
  22    C       19.9160   44.6780   61.1690 C.3   1 UNL  0.1012
  23    C       18.4840   44.8270   61.6590 C.3   1 UNL  0.0960
  24    O       17.5430   44.4440   60.6620 O.3   1 UNL -0.3698
  25    C       17.7540   43.1250   60.1730 C.3   1 UNL  0.0960
  26    C       19.1880   42.9020   59.7200 C.3   1 UNL  0.1012
  27    C       21.3770   43.5230   56.8630 C.ar  1 UNL -0.0406
  28    H       19.8923   41.7973   55.3411 H     1 UNL  0.1698
  29    H       21.5446   41.0302   52.3542 H     1 UNL  0.0646
  30    H       20.4931   40.1396   50.2705 H     1 UNL  0.0663
  31    H       16.5854   41.1745   51.8086 H     1 UNL  0.0663
  32    H       17.6449   42.0633   53.8895 H     1 UNL  0.0646
  33    H       22.1171   45.6272   54.2732 H     1 UNL  0.0631
  34    H       22.4539   47.1902   56.1834 H     1 UNL  0.0623
  35    H       22.1065   46.4188   58.5263 H     1 UNL  0.0628
  36    H       21.5829   42.8570   59.4000 H     1 UNL  0.0979
  37    H       22.0222   44.5105   60.0029 H     1 UNL  0.0979
  38    H       19.5403   44.8488   59.1670 H     1 UNL  0.3480
  39    H       20.4524   43.9868   61.8357 H     1 UNL  0.0949
  40    H       20.3890   45.6711   61.1743 H     1 UNL  0.0949
  41    H       18.3427   44.1911   62.5454 H     1 UNL  0.0627
  42    H       18.3136   45.8862   61.9020 H     1 UNL  0.0627
  43    H       17.5204   42.4087   60.9744 H     1 UNL  0.0627
  44    H       17.0985   42.9794   59.3017 H     1 UNL  0.0627
  45    H       19.6574   42.1470   60.3678 H     1 UNL  0.0949
  46    H       19.1779   42.5578   58.6753 H     1 UNL  0.0949
  47    H       21.0714   42.4840   57.0557 H     1 UNL  0.0636
@<TRIPOS>BOND
    1     2     1  2
    2     3     2 am
    3     4     3  1
    4     5     4 ar
    5     6     5 ar
    6     7     6 ar
    7     8     7  1
    8     9     8  1
    9    10     9  1
   10    11     9  1
   11    12     9  1
   12    13     7 ar
   13    14    13 ar
   14    14     4 ar
   15    15     2  1
   16    16    15 ar
   17    17    16 ar
   18    18    17 ar
   19    19    18 ar
   20    20    19  1
   21    21    20  1
   22    22    21  1
   23    23    22  1
   24    24    23  1
   25    25    24  1
   26    26    25  1
   27    26    21  1
   28    27    19 ar
   29    27    15 ar
   30     3    28  1
   31     5    29  1
   32     6    30  1
   33    13    31  1
   34    14    32  1
   35    16    33  1
   36    17    34  1
   37    18    35  1
   38    20    36  1
   39    20    37  1
   40    21    38  1
   41    22    39  1
   42    22    40  1
   43    23    41  1
   44    23    42  1
   45    25    43  1
   46    25    44  1
   47    26    45  1
   48    26    46  1
   49    27    47  1