@<TRIPOS>MOLECULE
UNK
50 53 0 0 0
SMALL
GASTEIGER

@<TRIPOS>ATOM
   1    O       12.8510   36.9730   52.1450 O.2   1 UNL -0.2689
   2    C       13.3170   37.5190   53.1810 C.2   1 UNL  0.2567
   3    N       12.4110   37.8850   54.2360 N.am  1 UNL -0.3219
   4    C       12.6120   38.9910   55.1340 C.ar  1 UNL  0.0413
   5    C       11.9400   40.1880   54.9110 C.ar  1 UNL -0.0348
   6    C       12.1290   41.2630   55.7740 C.ar  1 UNL -0.0175
   7    C       12.9930   41.1230   56.8540 C.ar  1 UNL  0.1291
   8    O       13.1850   42.1580   57.6990 O.3   1 UNL -0.4058
   9    C       12.2790   42.5650   58.7210 C.3   1 UNL  0.5726
  10    F       12.0820   41.5340   59.6230 F     1 UNL -0.1323
  11    F       11.0670   42.8880   58.1430 F     1 UNL -0.1323
  12    F       12.7710   43.6790   59.3780 F     1 UNL -0.1323
  13    C       13.6700   39.9290   57.0850 C.ar  1 UNL -0.0175
  14    C       13.4760   38.8590   56.2170 C.ar  1 UNL -0.0348
  15    C       14.7480   37.7260   53.2910 C.ar  1 UNL  0.0588
  16    C       15.6600   36.7530   52.8920 C.ar  1 UNL  0.0421
  17    N       16.9810   36.9600   53.0000 N.ar  1 UNL -0.2378
  18    C       17.4720   38.1060   53.4950 C.ar  1 UNL  0.1362
  19    N       18.8600   38.2890   53.5940 N.2   1 UNL -0.3534
  20    C       19.8170   38.1050   52.5120 C.3   1 UNL  0.0218
  21    C       20.8140   39.2190   52.7710 C.3   1 UNL -0.0075
  22    C       20.8980   39.2960   54.2840 C.3   1 UNL  0.0732
  23    O       21.0300   40.6420   54.6560 O.3   1 UNL -0.3912
  24    C       19.5960   38.7090   54.7910 C.3   1 UNL  0.0453
  25    C       16.6060   39.1130   53.9100 C.ar  1 UNL  0.0282
  26    C       17.1010   40.3650   54.4510 C.ar  1 UNL  0.0221
  27    C       17.1600   41.5090   53.6630 C.ar  1 UNL  0.0382
  28    N       17.6170   42.6570   54.1830 N.ar  1 UNL -0.2442
  29    C       18.0260   42.7280   55.4580 C.ar  1 UNL  0.1148
  30    N       17.9780   41.6390   56.2390 N.ar  1 UNL -0.2442
  31    C       17.5280   40.4670   55.7700 C.ar  1 UNL  0.0382
  32    C       15.2320   38.9230   53.8080 C.ar  1 UNL -0.0362
  33    H       11.5604   37.3168   54.3570 H     1 UNL  0.1698
  34    H       11.2592   40.2849   54.0525 H     1 UNL  0.0646
  35    H       11.6008   42.2127   55.6036 H     1 UNL  0.0663
  36    H       14.3505   39.8324   57.9438 H     1 UNL  0.0663
  37    H       14.0051   37.9096   56.3866 H     1 UNL  0.0646
  38    H       15.2922   35.8007   52.4823 H     1 UNL  0.0849
  39    H       20.2986   37.1177   52.5695 H     1 UNL  0.0494
  40    H       19.3632   38.1433   51.5107 H     1 UNL  0.0494
  41    H       21.7948   38.9739   52.3374 H     1 UNL  0.0312
  42    H       20.5089   40.1729   52.3160 H     1 UNL  0.0312
  43    H       21.7573   38.7498   54.7003 H     1 UNL  0.0620
  44    H       21.0369   40.7123   55.6435 H     1 UNL  0.2105
  45    H       19.7925   37.8456   55.4436 H     1 UNL  0.0521
  46    H       19.0250   39.4378   55.3850 H     1 UNL  0.0521
  47    H       16.8319   41.4721   52.6137 H     1 UNL  0.0848
  48    H       18.4009   43.6794   55.8633 H     1 UNL  0.1062
  49    H       17.4965   39.5863   56.4283 H     1 UNL  0.0848
  50    H       14.5360   39.7105   54.1326 H     1 UNL  0.0640
@<TRIPOS>BOND
    1     2     1  2
    2     3     2 am
    3     4     3  1
    4     5     4 ar
    5     6     5 ar
    6     7     6 ar
    7     8     7  1
    8     9     8  1
    9    10     9  1
   10    11     9  1
   11    12     9  1
   12    13     7 ar
   13    14    13 ar
   14    14     4 ar
   15    15     2  1
   16    16    15 ar
   17    17    16 ar
   18    18    17 ar
   19    19    18  1
   20    20    19  1
   21    21    20  1
   22    22    21  1
   23    23    22  1
   24    24    22  1
   25    24    19  1
   26    25    18 ar
   27    26    25  1
   28    27    26 ar
   29    28    27 ar
   30    29    28 ar
   31    30    29 ar
   32    31    26 ar
   33    31    30 ar
   34    32    15 ar
   35    32    25 ar
   36     3    33  1
   37     5    34  1
   38     6    35  1
   39    13    36  1
   40    14    37  1
   41    16    38  1
   42    20    39  1
   43    20    40  1
   44    21    41  1
   45    21    42  1
   46    22    43  1
   47    23    44  1
   48    24    45  1
   49    24    46  1
   50    27    47  1
   51    29    48  1
   52    31    49  1
   53    32    50  1