@<TRIPOS>MOLECULE
UNK
40 42 0 0 0
SMALL
GASTEIGER

@<TRIPOS>ATOM
   1    N       21.8470   38.0740   63.8200 N.am  1 UNL -0.3656
   2    C       20.4400   37.8170   63.8340 C.2   1 UNL  0.2482
   3    O       19.8670   37.6230   64.9410 O.2   1 UNL -0.2696
   4    C       19.6440   37.7910   62.5810 C.ar  1 UNL  0.0397
   5    C       20.2680   37.5050   61.3710 C.ar  1 UNL -0.0494
   6    C       19.5060   37.4850   60.2070 C.ar  1 UNL -0.0608
   7    C       18.1400   37.7450   60.2410 C.ar  1 UNL -0.0528
   8    C       17.5370   38.0290   61.4620 C.ar  1 UNL  0.0011
   9    C       16.1130   38.3020   61.5090 C.ar  1 UNL  0.0757
  10    C       15.3280   37.9930   60.4030 C.ar  1 UNL  0.0072
  11    C       13.9640   38.2590   60.4580 C.ar  1 UNL  0.1338
  12    N       13.1640   37.9530   59.3500 N.pl3 1 UNL -0.3401
  13    C       12.5230   38.9400   58.5240 C.ar  1 UNL  0.0398
  14    C       13.2930   39.7340   57.6800 C.ar  1 UNL -0.0349
  15    C       12.6810   40.6920   56.8760 C.ar  1 UNL -0.0175
  16    C       11.2990   40.8410   56.9300 C.ar  1 UNL  0.1291
  17    O       10.6940   41.7670   56.1570 O.3   1 UNL -0.4058
  18    C        9.6930   41.4960   55.1780 C.3   1 UNL  0.5726
  19    F        8.5930   40.9030   55.7730 F     1 UNL -0.1323
  20    F       10.2000   40.6670   54.1930 F     1 UNL -0.1323
  21    F        9.2980   42.6860   54.5990 F     1 UNL -0.1323
  22    C       10.5210   40.0520   57.7720 C.ar  1 UNL -0.0175
  23    C       11.1410   39.0970   58.5710 C.ar  1 UNL -0.0349
  24    N       13.4480   38.8020   61.5720 N.ar  1 UNL -0.2193
  25    C       14.2180   39.0940   62.6310 C.ar  1 UNL  0.1180
  26    N       15.5360   38.8430   62.5920 N.ar  1 UNL -0.2362
  27    C       18.2800   38.0540   62.6380 C.ar  1 UNL -0.0400
  28    H       22.3323   38.2348   62.9258 H     1 UNL  0.1595
  29    H       22.3749   38.0983   64.7041 H     1 UNL  0.1595
  30    H       21.3477   37.2978   61.3350 H     1 UNL  0.0631
  31    H       19.9910   37.2602   59.2456 H     1 UNL  0.0623
  32    H       17.5452   37.7263   59.3159 H     1 UNL  0.0630
  33    H       15.7770   37.5473   59.5031 H     1 UNL  0.0685
  34    H       13.0264   36.9603   59.1123 H     1 UNL  0.1681
  35    H       14.3849   39.6050   57.6479 H     1 UNL  0.0646
  36    H       13.2831   41.3234   56.2061 H     1 UNL  0.0663
  37    H        9.4292   40.1820   57.8053 H     1 UNL  0.0663
  38    H       10.5385   38.4654   59.2405 H     1 UNL  0.0646
  39    H       13.7693   39.5391   63.5313 H     1 UNL  0.1064
  40    H       17.7950   38.2787   63.5994 H     1 UNL  0.0638
@<TRIPOS>BOND
    1     2     1 am
    2     3     2  2
    3     4     2  1
    4     5     4 ar
    5     6     5 ar
    6     7     6 ar
    7     8     7 ar
    8     9     8  1
    9    10     9 ar
   10    11    10 ar
   11    12    11  1
   12    13    12  1
   13    14    13 ar
   14    15    14 ar
   15    16    15 ar
   16    17    16  1
   17    18    17  1
   18    19    18  1
   19    20    18  1
   20    21    18  1
   21    22    16 ar
   22    23    22 ar
   23    23    13 ar
   24    24    11 ar
   25    25    24 ar
   26    26    25 ar
   27    26     9 ar
   28    27     8 ar
   29    27     4 ar
   30     1    28  1
   31     1    29  1
   32     5    30  1
   33     6    31  1
   34     7    32  1
   35    10    33  1
   36    12    34  1
   37    14    35  1
   38    15    36  1
   39    22    37  1
   40    23    38  1
   41    25    39  1
   42    27    40  1