@<TRIPOS>MOLECULE
UNK
66 71 0 0 0
SMALL
GASTEIGER

@<TRIPOS>ATOM
   1    C       13.6040   -5.4990   25.6520 C.3   1 UNL -0.0207
   2    C       14.2420   -6.1140   24.4170 C.ar  1 UNL  0.0556
   3    C       13.6910   -6.1310   23.1730 C.ar  1 UNL  0.0316
   4    N       14.5880   -6.7720   22.3740 N.ar  1 UNL -0.3060
   5    C       14.4420   -7.0240   21.0050 C.ar  1 UNL  0.0491
   6    C       15.4650   -7.6710   20.3210 C.ar  1 UNL -0.0143
   7    C       15.3120   -7.9190   18.9610 C.ar  1 UNL  0.0437
   8    N       16.3590   -8.5870   18.2370 N.am  1 UNL -0.3219
   9    C       16.6200   -8.3770   16.8380 C.2   1 UNL  0.2552
  10    O       16.3630   -7.2570   16.3170 O.2   1 UNL -0.2689
  11    C       17.2200   -9.4200   16.0300 C.ar  1 UNL  0.0403
  12    C       17.6890  -10.5800   16.6370 C.ar  1 UNL -0.0491
  13    C       18.2660  -11.5810   15.8620 C.ar  1 UNL -0.0579
  14    C       18.3720  -11.4180   14.4840 C.ar  1 UNL -0.0438
  15    C       19.0070  -12.5330   13.6690 C.3   1 UNL -0.0392
  16    C       17.9010  -10.2560   13.8820 C.ar  1 UNL -0.0205
  17    C       17.9980  -10.0520   12.4200 C.2   1 UNL -0.0379
  18    C       16.9230   -9.7930   11.6660 C.2   1 UNL  0.0125
  19    N       17.0040   -9.5990   10.2830 N.ar  1 UNL -0.2901
  20    C       16.1410  -10.1340    9.3710 C.ar  1 UNL  0.1013
  21    N       16.5270   -9.7410    8.1770 N.ar  1 UNL -0.2306
  22    C       17.6350   -8.9540    8.3150 C.ar  1 UNL  0.1503
  23    C       18.4710   -8.2680    7.4410 C.ar  1 UNL  0.1574
  24    N       18.2290   -8.3140    6.0630 N.pl3 1 UNL -0.3654
  25    C       19.1870   -8.3540    4.9430 C.3   1 UNL  0.0277
  26    C       20.6000   -8.5040    5.4290 C.3   1 UNL -0.0309
  27    C       20.1080   -7.1680    4.9490 C.3   1 UNL -0.0309
  28    N       19.5150   -7.5590    7.9000 N.ar  1 UNL -0.2171
  29    C       19.7910   -7.4840    9.2090 C.ar  1 UNL  0.1199
  30    N       19.0030   -8.1350   10.0760 N.ar  1 UNL -0.2162
  31    C       17.9520   -8.8490    9.6460 C.ar  1 UNL  0.1690
  32    C       17.3230   -9.2520   14.6530 C.ar  1 UNL -0.0419
  33    C       14.1590   -7.5310   18.2850 C.ar  1 UNL -0.0261
  34    C       13.1510   -6.8860   18.9930 C.ar  1 UNL  0.0596
  35    C       11.8850   -6.4540   18.2720 C.3   1 UNL  0.4161
  36    F       12.0210   -5.1710   17.7710 F     1 UNL -0.1661
  37    F       11.6400   -7.3230   17.2250 F     1 UNL -0.1661
  38    F       10.8010   -6.4680   19.1320 F     1 UNL -0.1661
  39    C       13.2790   -6.6260   20.3540 C.ar  1 UNL -0.0256
  40    C       15.6540   -7.1240   23.1470 C.ar  1 UNL  0.0995
  41    N       15.4560   -6.7320   24.3840 N.ar  1 UNL -0.2417
  42    H       14.0568   -5.9354   26.5545 H     1 UNL  0.0296
  43    H       13.7701   -4.4116   25.6476 H     1 UNL  0.0296
  44    H       12.5234   -5.7049   25.6476 H     1 UNL  0.0296
  45    H       12.7189   -5.7122   22.8738 H     1 UNL  0.0842
  46    H       16.3800   -7.9816   20.8466 H     1 UNL  0.0667
  47    H       16.9555   -9.2530   18.7484 H     1 UNL  0.1698
  48    H       17.6040  -10.7057   17.7265 H     1 UNL  0.0631
  49    H       18.6380  -12.5003   16.3379 H     1 UNL  0.0626
  50    H       19.4353  -13.2851   14.3478 H     1 UNL  0.0280
  51    H       18.2421  -13.0048   13.0347 H     1 UNL  0.0280
  52    H       19.8030  -12.1159   13.0347 H     1 UNL  0.0280
  53    H       18.9845  -10.1152   11.9375 H     1 UNL  0.0645
  54    H       15.9383   -9.7303   12.1523 H     1 UNL  0.0823
  55    H       15.2778  -10.7781    9.5946 H     1 UNL  0.1048
  56    H       17.2354   -8.3209    5.7916 H     1 UNL  0.1620
  57    H       18.5596   -8.8514    4.1888 H     1 UNL  0.0528
  58    H       20.7996   -8.6647    6.4987 H     1 UNL  0.0288
  59    H       21.4453   -9.1596    5.1728 H     1 UNL  0.0288
  60    H       19.9474   -6.3505    5.6673 H     1 UNL  0.0288
  61    H       20.4439   -6.4401    4.1958 H     1 UNL  0.0288
  62    H       20.6504   -6.8977    9.5663 H     1 UNL  0.1064
  63    H       16.9505   -8.3328   14.1773 H     1 UNL  0.0638
  64    H       14.0471   -7.7311   17.2092 H     1 UNL  0.0651
  65    H       12.4754   -6.1152   20.9048 H     1 UNL  0.0651
  66    H       16.5468   -7.6569   22.7879 H     1 UNL  0.1047
@<TRIPOS>BOND
    1     2     1  1
    2     3     2 ar
    3     4     3 ar
    4     5     4  1
    5     6     5 ar
    6     7     6 ar
    7     8     7  1
    8     9     8 am
    9    10     9  2
   10    11     9  1
   11    12    11 ar
   12    13    12 ar
   13    14    13 ar
   14    15    14  1
   15    16    14 ar
   16    17    16  1
   17    18    17  2
   18    19    18  1
   19    20    19 ar
   20    21    20 ar
   21    22    21 ar
   22    23    22 ar
   23    24    23  1
   24    25    24  1
   25    26    25  1
   26    27    26  1
   27    27    25  1
   28    28    23 ar
   29    29    28 ar
   30    30    29 ar
   31    31    30 ar
   32    31    22 ar
   33    31    19 ar
   34    32    16 ar
   35    32    11 ar
   36    33     7 ar
   37    34    33 ar
   38    35    34  1
   39    36    35  1
   40    37    35  1
   41    38    35  1
   42    39    34 ar
   43    39     5 ar
   44    40     4 ar
   45    41    40 ar
   46    41     2 ar
   47     1    42  1
   48     1    43  1
   49     1    44  1
   50     3    45  1
   51     6    46  1
   52     8    47  1
   53    12    48  1
   54    13    49  1
   55    15    50  1
   56    15    51  1
   57    15    52  1
   58    17    53  1
   59    18    54  1
   60    20    55  1
   61    24    56  1
   62    25    57  1
   63    26    58  1
   64    26    59  1
   65    27    60  1
   66    27    61  1
   67    29    62  1
   68    32    63  1
   69    33    64  1
   70    39    65  1
   71    40    66  1