@<TRIPOS>MOLECULE
UNK
20 20 0 0 0
SMALL
GASTEIGER

@<TRIPOS>ATOM
   1    C        1.5270   67.7650   28.3250 C.3   1 UNL  0.0810
   2    O        0.6360   66.8370   27.7190 O.3   1 UNL -0.4654
   3    C        0.9860   65.5050   27.4700 C.2   1 UNL  0.3395
   4    O        2.1150   65.0710   27.8300 O.2   1 UNL -0.2461
   5    C        0.0200   64.6170   26.8530 C.ar  1 UNL  0.0826
   6    C       -1.2210   65.1320   26.4900 C.ar  1 UNL -0.0441
   7    C       -2.1690   64.3060   25.8950 C.ar  1 UNL -0.0425
   8    C       -1.8660   62.9670   25.6700 C.ar  1 UNL  0.0426
   9   Cl       -3.0770   61.9050   24.9100 Cl    1 UNL -0.0843
  10    C       -0.6280   62.4460   26.0310 C.ar  1 UNL -0.0196
  11    C        0.3170   63.2760   26.6250 C.ar  1 UNL  0.0476
  12    N        1.5580   62.7340   26.9820 N.2   1 UNL -0.3980
  13    H        1.4507   67.6855   29.4195 H     1 UNL  0.0670
  14    H        2.5576   67.5416   28.0121 H     1 UNL  0.0670
  15    H        1.2619   68.7857   28.0121 H     1 UNL  0.0670
  16    H       -1.4521   66.1917   26.6735 H     1 UNL  0.0633
  17    H       -3.1507   64.7085   25.6046 H     1 UNL  0.0639
  18    H       -0.3980   61.3860   25.8482 H     1 UNL  0.0661
  19    H        2.2727   63.3303   27.4231 H     1 UNL  0.1562
  20    H        1.7560   61.7391   26.8035 H     1 UNL  0.1562
@<TRIPOS>BOND
    1     2     1  1
    2     3     2  1
    3     4     3  2
    4     5     3  1
    5     6     5 ar
    6     7     6 ar
    7     8     7 ar
    8     9     8  1
    9    10     8 ar
   10    11    10 ar
   11    11     5 ar
   12    12    11  1
   13     1    13  1
   14     1    14  1
   15     1    15  1
   16     6    16  1
   17     7    17  1
   18    10    18  1
   19    12    19  1
   20    12    20  1