@<TRIPOS>MOLECULE
UNK
47 49 0 0 0
SMALL
GASTEIGER

@<TRIPOS>ATOM
   1    O       16.7680   41.5640   56.5460 O.2   1 UNL -0.2689
   2    C       16.7960   40.3060   56.4510 C.2   1 UNL  0.2552
   3    N       17.5250   39.5350   57.4220 N.am  1 UNL -0.3220
   4    C       17.7060   39.9310   58.7520 C.ar  1 UNL  0.0413
   5    C       16.9600   40.9890   59.2610 C.ar  1 UNL -0.0348
   6    C       17.1330   41.3900   60.5830 C.ar  1 UNL -0.0175
   7    C       18.0570   40.7220   61.3790 C.ar  1 UNL  0.1291
   8    O       18.2430   41.1170   62.7140 O.3   1 UNL -0.4058
   9    C       17.9330   40.3250   63.8580 C.3   1 UNL  0.5726
  10    F       18.2470   41.0400   64.9970 F     1 UNL -0.1323
  11    F       16.5820   40.0250   63.8790 F     1 UNL -0.1323
  12    F       18.6750   39.1570   63.8450 F     1 UNL -0.1323
  13    C       18.8090   39.6640   60.8770 C.ar  1 UNL -0.0175
  14    C       18.6290   39.2690   59.5560 C.ar  1 UNL -0.0348
  15    C       16.1180   39.6450   55.3100 C.ar  1 UNL  0.0402
  16    C       14.8370   39.1260   55.4720 C.ar  1 UNL -0.0494
  17    C       14.2170   38.5090   54.3910 C.ar  1 UNL -0.0610
  18    C       14.8570   38.4080   53.1600 C.ar  1 UNL -0.0534
  19    C       16.1370   38.9350   53.0200 C.ar  1 UNL  0.0070
  20    C       16.8480   38.8300   51.6790 C.3   1 UNL  0.1029
  21    N       17.3680   40.1410   51.2250 N.4   1 UNL -0.3274
  22    C       18.2440   40.7570   52.2320 C.3   1 UNL  0.1012
  23    C       19.6770   40.2970   52.0080 C.3   1 UNL  0.0960
  24    O       20.2010   40.7600   50.7690 O.3   1 UNL -0.3698
  25    C       19.1990   40.9500   49.7820 C.3   1 UNL  0.0960
  26    C       18.0760   39.9360   49.9510 C.3   1 UNL  0.1012
  27    C       16.7770   39.5550   54.0880 C.ar  1 UNL -0.0406
  28    H       17.9374   38.6403   57.1213 H     1 UNL  0.1698
  29    H       16.2335   41.5088   58.6191 H     1 UNL  0.0646
  30    H       16.5459   42.2251   60.9928 H     1 UNL  0.0663
  31    H       19.5376   39.1461   61.5180 H     1 UNL  0.0663
  32    H       19.2160   38.4336   59.1467 H     1 UNL  0.0646
  33    H       14.3223   39.2027   56.4411 H     1 UNL  0.0631
  34    H       13.2052   38.0945   54.5111 H     1 UNL  0.0623
  35    H       14.3586   37.9189   52.3101 H     1 UNL  0.0628
  36    H       17.6894   38.1282   51.7766 H     1 UNL  0.0979
  37    H       16.1202   38.4756   50.9342 H     1 UNL  0.0979
  38    H       16.5837   40.7947   51.0890 H     1 UNL  0.3480
  39    H       18.1923   41.8521   52.1422 H     1 UNL  0.0949
  40    H       17.9152   40.4553   53.2374 H     1 UNL  0.0949
  41    H       20.3049   40.6826   52.8247 H     1 UNL  0.0627
  42    H       19.6800   39.1972   51.9868 H     1 UNL  0.0627
  43    H       18.7861   41.9650   49.8778 H     1 UNL  0.0627
  44    H       19.6515   40.8134   48.7887 H     1 UNL  0.0627
  45    H       17.3627   40.0474   49.1210 H     1 UNL  0.0949
  46    H       18.5124   38.9263   49.9509 H     1 UNL  0.0949
  47    H       17.7894   39.9681   53.9682 H     1 UNL  0.0636
@<TRIPOS>BOND
    1     2     1  2
    2     3     2 am
    3     4     3  1
    4     5     4 ar
    5     6     5 ar
    6     7     6 ar
    7     8     7  1
    8     9     8  1
    9    10     9  1
   10    11     9  1
   11    12     9  1
   12    13     7 ar
   13    14     4 ar
   14    14    13 ar
   15    15     2  1
   16    16    15 ar
   17    17    16 ar
   18    18    17 ar
   19    19    18 ar
   20    20    19  1
   21    21    20  1
   22    22    21  1
   23    23    22  1
   24    24    23  1
   25    25    24  1
   26    26    25  1
   27    26    21  1
   28    27    19 ar
   29    27    15 ar
   30     3    28  1
   31     5    29  1
   32     6    30  1
   33    13    31  1
   34    14    32  1
   35    16    33  1
   36    17    34  1
   37    18    35  1
   38    20    36  1
   39    20    37  1
   40    21    38  1
   41    22    39  1
   42    22    40  1
   43    23    41  1
   44    23    42  1
   45    25    43  1
   46    25    44  1
   47    26    45  1
   48    26    46  1
   49    27    47  1