@<TRIPOS>MOLECULE
UNK
47 50 0 0 0
SMALL
GASTEIGER

@<TRIPOS>ATOM
   1    C       17.2610   53.7650   10.5080 C.3   1 UNL -0.0377
   2    C       16.5800   53.3190   11.7920 C.ar  1 UNL -0.0273
   3    C       17.0650   52.1950   12.4520 C.ar  1 UNL -0.0552
   4    C       16.4610   51.7650   13.6290 C.ar  1 UNL -0.0381
   5    C       15.3740   52.4690   14.1350 C.ar  1 UNL  0.0431
   6    N       14.7590   52.0440   15.3190 N.am  1 UNL -0.3219
   7    C       15.0590   50.7980   15.9630 C.2   1 UNL  0.2567
   8    O       16.2370   50.5730   16.3540 O.2   1 UNL -0.2689
   9    C       14.0020   49.7790   16.1760 C.ar  1 UNL  0.0580
  10    C       13.2990   49.7640   17.3760 C.ar  1 UNL -0.0464
  11    C       12.3090   48.8080   17.5710 C.ar  1 UNL -0.0430
  12    C       12.0530   47.8940   16.5550 C.ar  1 UNL  0.0268
  13    N       12.7450   47.9280   15.4070 N.ar  1 UNL -0.2639
  14    C       13.7050   48.8410   15.1930 C.ar  1 UNL  0.0395
  15    C       14.8830   53.5940   13.4810 C.ar  1 UNL -0.0145
  16    C       15.4910   54.0190   12.3040 C.ar  1 UNL  0.0459
  17    N       14.9940   55.1840   11.6140 N.pl3 1 UNL -0.3238
  18    C       14.9420   56.4610   12.1870 C.ar  1 UNL  0.2272
  19    N       15.9670   56.8710   12.9490 N.ar  1 UNL -0.2213
  20    C       15.9720   58.0830   13.5220 C.ar  1 UNL  0.0330
  21    C       14.8930   58.9390   13.3270 C.ar  1 UNL -0.0171
  22    C       13.8340   58.5050   12.5360 C.ar  1 UNL  0.0773
  23    C       12.7040   59.3910   12.3270 C.ar  1 UNL  0.0187
  24    C       12.7360   60.6770   12.8550 C.ar  1 UNL -0.0497
  25    C       11.6520   61.5240   12.6520 C.ar  1 UNL -0.0431
  26    C       10.5640   61.0530   11.9240 C.ar  1 UNL  0.0268
  27    N       10.5560   59.8080   11.4250 N.ar  1 UNL -0.2640
  28    C       11.5900   58.9730   11.6070 C.ar  1 UNL  0.0362
  29    N       13.8950   57.2780   11.9920 N.ar  1 UNL -0.2127
  30    H       18.1580   54.3524   10.7536 H     1 UNL  0.0280
  31    H       17.5510   52.8813    9.9207 H     1 UNL  0.0280
  32    H       16.5668   54.3840    9.9207 H     1 UNL  0.0280
  33    H       17.9262   51.6460   12.0433 H     1 UNL  0.0627
  34    H       16.8399   50.8761   14.1546 H     1 UNL  0.0645
  35    H       14.0539   52.6586   15.7503 H     1 UNL  0.1698
  36    H       13.5239   50.5002   18.1617 H     1 UNL  0.0632
  37    H       11.7389   48.7752   18.5112 H     1 UNL  0.0639
  38    H       11.2718   47.1323   16.6949 H     1 UNL  0.0840
  39    H       14.2564   48.8475   14.2412 H     1 UNL  0.0848
  40    H       14.0220   54.1426   13.8905 H     1 UNL  0.0667
  41    H       14.6589   55.0706   10.6467 H     1 UNL  0.1697
  42    H       16.8238   58.3985   14.1423 H     1 UNL  0.0842
  43    H       14.8774   59.9375   13.7883 H     1 UNL  0.0662
  44    H       13.6101   61.0208   13.4275 H     1 UNL  0.0631
  45    H       11.6547   62.5460   13.0589 H     1 UNL  0.0639
  46    H        9.6985   61.7106   11.7553 H     1 UNL  0.0840
  47    H       11.5567   57.9571   11.1865 H     1 UNL  0.0847
@<TRIPOS>BOND
    1     2     1  1
    2     3     2 ar
    3     4     3 ar
    4     5     4 ar
    5     6     5  1
    6     7     6 am
    7     8     7  2
    8     9     7  1
    9    10     9 ar
   10    11    10 ar
   11    12    11 ar
   12    13    12 ar
   13    14    13 ar
   14    14     9 ar
   15    15     5 ar
   16    16    15 ar
   17    16     2 ar
   18    17    16  1
   19    18    17  1
   20    19    18 ar
   21    20    19 ar
   22    21    20 ar
   23    22    21 ar
   24    23    22  1
   25    24    23 ar
   26    25    24 ar
   27    26    25 ar
   28    27    26 ar
   29    28    27 ar
   30    28    23 ar
   31    29    22 ar
   32    29    18 ar
   33     1    30  1
   34     1    31  1
   35     1    32  1
   36     3    33  1
   37     4    34  1
   38     6    35  1
   39    10    36  1
   40    11    37  1
   41    12    38  1
   42    14    39  1
   43    15    40  1
   44    17    41  1
   45    20    42  1
   46    21    43  1
   47    24    44  1
   48    25    45  1
   49    26    46  1
   50    28    47  1