@<TRIPOS>MOLECULE
UNK
48 51 0 0 0
SMALL
GASTEIGER

@<TRIPOS>ATOM
   1    C       -1.8230   11.2860   18.6480 C.3   1 UNL  0.0775
   2    O       -2.3030   10.2480   19.4950 O.3   1 UNL -0.4961
   3    C       -1.5140    9.2230   19.8830 C.ar  1 UNL  0.1263
   4    C       -0.4710    8.8330   19.0510 C.ar  1 UNL -0.0193
   5    C        0.3600    7.7800   19.4220 C.ar  1 UNL -0.0585
   6    C        0.1460    7.1170   20.6260 C.ar  1 UNL -0.0614
   7    C       -0.8980    7.5070   21.4600 C.ar  1 UNL -0.0506
   8    C       -1.7280    8.5600   21.0880 C.ar  1 UNL  0.0259
   9    C       -2.8170    8.9660   21.9560 C.ar  1 UNL  0.0124
  10    C       -3.9660    9.5700   21.5410 C.ar  1 UNL  0.0112
  11    N       -4.7250    9.7870   22.6530 N.ar  1 UNL -0.3455
  12    C       -4.0600    9.3270   23.7640 C.ar  1 UNL  0.1374
  13    N       -4.3420    9.2910   25.0760 N.ar  1 UNL -0.2379
  14    C       -3.4950    8.7640   25.9760 C.ar  1 UNL  0.0372
  15    C       -2.2710    8.2220   25.5950 C.ar  1 UNL  0.0023
  16    C       -1.3270    7.6400   26.5350 C.ar  1 UNL  0.0024
  17    C       -0.0260    7.3290   26.1570 C.ar  1 UNL  0.0347
  18    N        0.8310    6.7920   27.0380 N.ar  1 UNL -0.2633
  19    C        0.4660    6.5400   28.3040 C.ar  1 UNL  0.0396
  20    C       -0.8240    6.8320   28.7360 C.ar  1 UNL  0.0584
  21    C       -1.2390    6.5680   30.1000 C.2   1 UNL  0.2544
  22    O       -1.7740    5.4580   30.3660 O.2   1 UNL -0.2690
  23    N       -1.0640    7.5430   31.1480 N.am  1 UNL -0.3447
  24    C       -1.4780    7.2380   32.5220 C.3   1 UNL  0.0091
  25    C       -0.3230    8.7730   30.8590 C.3   1 UNL  0.0091
  26    C       -1.7320    7.3890   27.8420 C.ar  1 UNL -0.0384
  27    C       -1.9460    8.2430   24.2450 C.ar  1 UNL -0.0411
  28    C       -2.8610    8.8010   23.3600 C.ar  1 UNL  0.0273
  29    H       -1.4403   12.1137   19.2632 H     1 UNL  0.0669
  30    H       -1.0137   10.8963   18.0131 H     1 UNL  0.0669
  31    H       -2.6441   11.6503   18.0131 H     1 UNL  0.0669
  32    H       -0.3023    9.3570   18.0987 H     1 UNL  0.0662
  33    H        1.1856    7.4722   18.7635 H     1 UNL  0.0624
  34    H        0.8021    6.2842   20.9192 H     1 UNL  0.0623
  35    H       -1.0667    6.9831   22.4124 H     1 UNL  0.0631
  36    H       -4.2308    9.8325   20.5061 H     1 UNL  0.0823
  37    H       -5.6555   10.2287   22.6592 H     1 UNL  0.1675
  38    H       -3.7757    8.7608   27.0396 H     1 UNL  0.0847
  39    H        0.3037    7.5251   25.1260 H     1 UNL  0.0847
  40    H        1.1908    6.0999   29.0047 H     1 UNL  0.0848
  41    H       -0.7995    7.7379   33.2289 H     1 UNL  0.0457
  42    H       -2.5052    7.5968   32.6837 H     1 UNL  0.0457
  43    H       -1.4398    6.1506   32.6837 H     1 UNL  0.0457
  44    H       -0.0319    9.2562   31.8034 H     1 UNL  0.0457
  45    H        0.5790    8.5298   30.2783 H     1 UNL  0.0457
  46    H       -0.9596    9.4567   30.2783 H     1 UNL  0.0457
  47    H       -2.7564    7.6278   28.1639 H     1 UNL  0.0639
  48    H       -0.9917    7.8298   23.8863 H     1 UNL  0.0638
@<TRIPOS>BOND
    1     2     1  1
    2     3     2  1
    3     4     3 ar
    4     5     4 ar
    5     6     5 ar
    6     7     6 ar
    7     8     7 ar
    8     8     3 ar
    9     9     8  1
   10    10     9 ar
   11    11    10 ar
   12    12    11 ar
   13    13    12 ar
   14    14    13 ar
   15    15    14 ar
   16    16    15  1
   17    17    16 ar
   18    18    17 ar
   19    19    18 ar
   20    20    19 ar
   21    21    20  1
   22    22    21  2
   23    23    21 am
   24    24    23  1
   25    25    23  1
   26    26    16 ar
   27    26    20 ar
   28    27    15 ar
   29    28    27 ar
   30    28    12 ar
   31    28     9 ar
   32     1    29  1
   33     1    30  1
   34     1    31  1
   35     4    32  1
   36     5    33  1
   37     6    34  1
   38     7    35  1
   39    10    36  1
   40    11    37  1
   41    14    38  1
   42    17    39  1
   43    19    40  1
   44    24    41  1
   45    24    42  1
   46    24    43  1
   47    25    44  1
   48    25    45  1
   49    25    46  1
   50    26    47  1
   51    27    48  1