@<TRIPOS>MOLECULE
UNK
70 74 0 0 0
SMALL
GASTEIGER

@<TRIPOS>ATOM
   1    C       22.2280   12.3970   56.8180 C.3   1 UNL -0.0377
   2    C       20.8620   12.8490   56.3290 C.ar  1 UNL -0.0273
   3    C       19.8110   11.9380   56.3460 C.ar  1 UNL -0.0552
   4    C       18.5490   12.3240   55.9040 C.ar  1 UNL -0.0381
   5    C       18.3540   13.6230   55.4490 C.ar  1 UNL  0.0431
   6    N       17.0880   14.0210   55.0020 N.am  1 UNL -0.3219
   7    C       16.7670   15.3650   54.6050 C.2   1 UNL  0.2552
   8    O       17.3740   16.3350   55.1370 O.2   1 UNL -0.2689
   9    C       15.6950   15.6300   53.6140 C.ar  1 UNL  0.0397
  10    C       15.7340   16.8010   52.8630 C.ar  1 UNL -0.0490
  11    C       14.7370   17.0620   51.9300 C.ar  1 UNL -0.0526
  12    C       13.7080   16.1400   51.7610 C.ar  1 UNL  0.0062
  13    C       12.6110   16.4120   50.7450 C.3   1 UNL  0.1031
  14    N       11.4550   17.1270   51.3470 N.4   1 UNL -0.3219
  15    C       11.4700   16.9420   52.8060 C.3   1 UNL  0.1273
  16    C       10.2160   17.5360   53.4320 C.3   1 UNL  0.1268
  17    N        8.9900   17.0100   52.8070 N.4   1 UNL -0.3281
  18    C        8.1200   16.3770   53.8090 C.3   1 UNL  0.0668
  19    C        9.2360   16.0680   51.7040 C.3   1 UNL  0.1268
  20    C       10.2180   16.6500   50.7010 C.3   1 UNL  0.1273
  21    C       13.6650   14.9680   52.5100 C.ar  1 UNL -0.0526
  22    C       14.6650   14.7120   53.4430 C.ar  1 UNL -0.0490
  23    C       19.4000   14.5400   55.4290 C.ar  1 UNL -0.0145
  24    C       20.6590   14.1470   55.8710 C.ar  1 UNL  0.0459
  25    N       21.7510   15.0840   55.8570 N.pl3 1 UNL -0.3238
  26    C       22.1640   15.8110   56.9810 C.ar  1 UNL  0.2272
  27    N       21.4730   15.6840   58.1240 N.ar  1 UNL -0.2213
  28    C       21.8220   16.3550   59.2310 C.ar  1 UNL  0.0330
  29    C       22.9240   17.2040   59.2000 C.ar  1 UNL -0.0171
  30    C       23.6340   17.3290   58.0100 C.ar  1 UNL  0.0773
  31    C       24.7850   18.2130   57.9690 C.ar  1 UNL  0.0187
  32    C       25.1110   18.9640   59.0930 C.ar  1 UNL -0.0497
  33    C       26.2150   19.8080   59.0500 C.ar  1 UNL -0.0431
  34    C       26.9610   19.8740   57.8780 C.ar  1 UNL  0.0268
  35    N       26.6260   19.1400   56.8060 N.ar  1 UNL -0.2640
  36    C       25.5660   18.3180   56.8230 C.ar  1 UNL  0.0362
  37    N       23.2290   16.6270   56.9390 N.ar  1 UNL -0.2127
  38    H       22.2408   12.3928   57.9179 H     1 UNL  0.0280
  39    H       22.4339   11.3828   56.4450 H     1 UNL  0.0280
  40    H       22.9981   13.0882   56.4450 H     1 UNL  0.0280
  41    H       19.9772   10.9129   56.7086 H     1 UNL  0.0627
  42    H       17.7139   11.6081   55.9146 H     1 UNL  0.0645
  43    H       16.3441   13.3101   54.9549 H     1 UNL  0.1698
  44    H       16.5537   17.5201   53.0077 H     1 UNL  0.0631
  45    H       14.7610   17.9855   51.3328 H     1 UNL  0.0628
  46    H       13.0248   17.0277   49.9327 H     1 UNL  0.0979
  47    H       12.2509   15.4433   50.3683 H     1 UNL  0.0979
  48    H       11.5106   18.1425   51.1843 H     1 UNL  0.3483
  49    H       11.5139   15.8668   53.0341 H     1 UNL  0.0985
  50    H       12.3510   17.4540   53.2203 H     1 UNL  0.0985
  51    H       10.2027   17.2902   54.5041 H     1 UNL  0.0985
  52    H       10.2390   18.6246   53.2759 H     1 UNL  0.0985
  53    H        8.5213   17.8307   52.3976 H     1 UNL  0.3477
  54    H        8.4746   16.6350   54.8178 H     1 UNL  0.0886
  55    H        7.0888   16.7375   53.6794 H     1 UNL  0.0886
  56    H        8.1457   15.2850   53.6794 H     1 UNL  0.0886
  57    H        9.6502   15.1348   52.1133 H     1 UNL  0.0985
  58    H        8.2833   15.8732   51.1898 H     1 UNL  0.0985
  59    H       10.4782   15.8726   49.9675 H     1 UNL  0.0985
  60    H        9.7357   17.5115   50.2161 H     1 UNL  0.0985
  61    H       12.8456   14.2485   52.3654 H     1 UNL  0.0628
  62    H       14.6408   13.7893   54.0414 H     1 UNL  0.0631
  63    H       19.2332   15.5654   55.0674 H     1 UNL  0.0667
  64    H       22.2570   15.2282   54.9715 H     1 UNL  0.1697
  65    H       21.2411   16.2352   60.1574 H     1 UNL  0.0842
  66    H       23.2272   17.7642   60.0968 H     1 UNL  0.0662
  67    H       24.5021   18.8911   60.0062 H     1 UNL  0.0631
  68    H       26.4932   20.4121   59.9262 H     1 UNL  0.0639
  69    H       27.8375   20.5369   57.8293 H     1 UNL  0.0840
  70    H       25.3144   17.7268   55.9302 H     1 UNL  0.0847
@<TRIPOS>BOND
    1     2     1  1
    2     3     2 ar
    3     4     3 ar
    4     5     4 ar
    5     6     5  1
    6     7     6 am
    7     8     7  2
    8     9     7  1
    9    10     9 ar
   10    11    10 ar
   11    12    11 ar
   12    13    12  1
   13    14    13  1
   14    15    14  1
   15    16    15  1
   16    17    16  1
   17    18    17  1
   18    19    17  1
   19    20    19  1
   20    20    14  1
   21    21    12 ar
   22    22    21 ar
   23    22     9 ar
   24    23     5 ar
   25    24    23 ar
   26    24     2 ar
   27    25    24  1
   28    26    25  1
   29    27    26 ar
   30    28    27 ar
   31    29    28 ar
   32    30    29 ar
   33    31    30  1
   34    32    31 ar
   35    33    32 ar
   36    34    33 ar
   37    35    34 ar
   38    36    35 ar
   39    36    31 ar
   40    37    26 ar
   41    37    30 ar
   42     1    38  1
   43     1    39  1
   44     1    40  1
   45     3    41  1
   46     4    42  1
   47     6    43  1
   48    10    44  1
   49    11    45  1
   50    13    46  1
   51    13    47  1
   52    14    48  1
   53    15    49  1
   54    15    50  1
   55    16    51  1
   56    16    52  1
   57    17    53  1
   58    18    54  1
   59    18    55  1
   60    18    56  1
   61    19    57  1
   62    19    58  1
   63    20    59  1
   64    20    60  1
   65    21    61  1
   66    22    62  1
   67    23    63  1
   68    25    64  1
   69    28    65  1
   70    29    66  1
   71    32    67  1
   72    33    68  1
   73    34    69  1
   74    36    70  1