@<TRIPOS>MOLECULE
UNK
54 58 0 0 0
SMALL
GASTEIGER

@<TRIPOS>ATOM
   1    C       36.9930  -11.8710  -19.8100 C.3   1 UNL -0.0392
   2    C       36.2080  -10.9640  -18.8760 C.ar  1 UNL -0.0430
   3    C       36.2130  -11.2320  -17.5120 C.ar  1 UNL -0.0566
   4    C       35.5010  -10.4160  -16.6390 C.ar  1 UNL -0.0361
   5    C       34.7780   -9.3240  -17.1090 C.ar  1 UNL  0.0656
   6    N       34.0120   -8.3810  -16.4740 N.ar  1 UNL -0.2778
   7    N       33.5240   -7.5490  -17.3690 N.ar  1 UNL -0.1830
   8    C       33.9490   -7.9090  -18.5630 C.ar  1 UNL  0.0572
   9    C       34.7710   -9.0640  -18.4550 C.ar  1 UNL  0.0271
  10    C       35.4820   -9.8710  -19.3420 C.ar  1 UNL -0.0102
  11    C       35.4780   -9.5920  -20.7650 C.2   1 UNL -0.0372
  12    C       34.4650   -9.9580  -21.5600 C.2   1 UNL  0.0125
  13    N       34.4470   -9.6890  -22.9720 N.ar  1 UNL -0.2901
  14    C       33.5390  -10.2040  -23.8490 C.ar  1 UNL  0.1013
  15    N       33.8340   -9.7430  -25.0450 N.ar  1 UNL -0.2306
  16    C       34.9280   -8.9330  -24.9420 C.ar  1 UNL  0.1506
  17    C       35.6870   -8.1830  -25.8340 C.ar  1 UNL  0.1616
  18    N       35.3530   -8.1700  -27.1940 N.pl3 1 UNL -0.3383
  19    C       36.3160   -8.0440  -28.2550 C.ar  1 UNL  0.0396
  20    C       37.6720   -8.1270  -27.9570 C.ar  1 UNL -0.0378
  21    C       38.6150   -8.0080  -28.9730 C.ar  1 UNL -0.0495
  22    C       38.1830   -7.8050  -30.2790 C.ar  1 UNL  0.0113
  23    P       39.3640   -7.6520  -31.5760 P.3   1 UNL  0.1093
  24    C       39.4230   -9.1990  -32.5220 C.3   1 UNL -0.0070
  25    C       38.8840   -6.2910  -32.6760 C.3   1 UNL -0.0070
  26    O       40.7360   -7.3670  -31.0070 O.2   1 UNL -0.3192
  27    C       36.8280   -7.7220  -30.5800 C.ar  1 UNL -0.0495
  28    C       35.8870   -7.8410  -29.5620 C.ar  1 UNL -0.0378
  29    N       36.7410   -7.4680  -25.4110 N.ar  1 UNL -0.2168
  30    C       37.1020   -7.4470  -24.1210 C.ar  1 UNL  0.1200
  31    N       36.3900   -8.1610  -23.2370 N.ar  1 UNL -0.2162
  32    C       35.3310   -8.8830  -23.6310 C.ar  1 UNL  0.1690
  33    H       37.5993  -12.5715  -19.2170 H     1 UNL  0.0280
  34    H       36.2947  -12.4366  -20.4444 H     1 UNL  0.0280
  35    H       37.6530  -11.2611  -20.4444 H     1 UNL  0.0280
  36    H       36.7805  -12.0901  -17.1227 H     1 UNL  0.0627
  37    H       35.5097  -10.6372  -15.5615 H     1 UNL  0.0646
  38    H       33.8452   -8.3316  -15.4588 H     1 UNL  0.1901
  39    H       33.7044   -7.3930  -19.5031 H     1 UNL  0.0867
  40    H       36.3354   -9.0623  -21.2056 H     1 UNL  0.0645
  41    H       33.6100  -10.4871  -21.1138 H     1 UNL  0.0823
  42    H       32.7095  -10.8825  -23.6011 H     1 UNL  0.1048
  43    H       34.3589   -8.2557  -27.4496 H     1 UNL  0.1681
  44    H       37.9986   -8.2866  -26.9188 H     1 UNL  0.0645
  45    H       39.6893   -8.0737  -28.7459 H     1 UNL  0.0631
  46    H       39.4555  -10.0520  -31.8282 H     1 UNL  0.0313
  47    H       38.5271   -9.2757  -33.1557 H     1 UNL  0.0313
  48    H       40.3221   -9.2072  -33.1557 H     1 UNL  0.0313
  49    H       38.5779   -5.4231  -32.0735 H     1 UNL  0.0313
  50    H       39.7386   -6.0137  -33.3107 H     1 UNL  0.0313
  51    H       38.0445   -6.6112  -33.3107 H     1 UNL  0.0313
  52    H       36.5015   -7.5630  -31.6183 H     1 UNL  0.0631
  53    H       34.8127   -7.7750  -29.7892 H     1 UNL  0.0645
  54    H       37.9681   -6.8539  -23.7924 H     1 UNL  0.1064
@<TRIPOS>BOND
    1     2     1  1
    2     3     2 ar
    3     4     3 ar
    4     5     4 ar
    5     6     5 ar
    6     7     6 ar
    7     8     7 ar
    8     9     8 ar
    9     9     5 ar
   10    10     2 ar
   11    10     9 ar
   12    11    10  1
   13    12    11  2
   14    13    12  1
   15    14    13 ar
   16    15    14 ar
   17    16    15 ar
   18    17    16 ar
   19    18    17  1
   20    19    18  1
   21    20    19 ar
   22    21    20 ar
   23    22    21 ar
   24    23    22  1
   25    24    23  1
   26    25    23  1
   27    26    23  2
   28    27    22 ar
   29    28    27 ar
   30    28    19 ar
   31    29    17 ar
   32    30    29 ar
   33    31    30 ar
   34    32    31 ar
   35    32    16 ar
   36    32    13 ar
   37     1    33  1
   38     1    34  1
   39     1    35  1
   40     3    36  1
   41     4    37  1
   42     6    38  1
   43     8    39  1
   44    11    40  1
   45    12    41  1
   46    14    42  1
   47    18    43  1
   48    20    44  1
   49    21    45  1
   50    24    46  1
   51    24    47  1
   52    24    48  1
   53    25    49  1
   54    25    50  1
   55    25    51  1
   56    27    52  1
   57    28    53  1
   58    30    54  1