@<TRIPOS>MOLECULE
UNK
40 42 0 0 0
SMALL
GASTEIGER

@<TRIPOS>ATOM
   1    N       25.1440   41.4140   60.9010 N.am  1 UNL -0.3656
   2    C       25.0950   42.7640   61.3710 C.2   1 UNL  0.2482
   3    O       25.1230   42.9760   62.6130 O.2   1 UNL -0.2696
   4    C       25.0290   43.9100   60.4310 C.ar  1 UNL  0.0397
   5    C       25.4320   45.1740   60.8510 C.ar  1 UNL -0.0494
   6    C       25.3630   46.2370   59.9570 C.ar  1 UNL -0.0608
   7    C       24.8980   46.0510   58.6590 C.ar  1 UNL -0.0528
   8    C       24.5000   44.7790   58.2600 C.ar  1 UNL  0.0011
   9    C       24.0140   44.5740   56.9090 C.ar  1 UNL  0.0757
  10    C       22.6420   44.5330   56.6810 C.ar  1 UNL  0.0072
  11    C       22.1870   44.3360   55.3820 C.ar  1 UNL  0.1338
  12    N       20.8080   44.2920   55.1420 N.pl3 1 UNL -0.3401
  13    C       20.2010   43.5520   54.0680 C.ar  1 UNL  0.0398
  14    C       19.0190   42.8550   54.2970 C.ar  1 UNL -0.0349
  15    C       18.4240   42.1370   53.2640 C.ar  1 UNL -0.0175
  16    C       19.0270   42.1260   52.0100 C.ar  1 UNL  0.1291
  17    O       18.4610   41.4320   51.0010 O.3   1 UNL -0.4058
  18    C       17.5680   40.3310   51.1570 C.3   1 UNL  0.5726
  19    F       16.4420   40.7250   51.8570 F     1 UNL -0.1323
  20    F       17.1820   39.8860   49.9070 F     1 UNL -0.1323
  21    F       18.1990   39.2950   51.8230 F     1 UNL -0.1323
  22    C       20.2100   42.8190   51.7730 C.ar  1 UNL -0.0175
  23    C       20.7970   43.5350   52.8110 C.ar  1 UNL -0.0349
  24    N       23.0800   44.1920   54.3910 N.ar  1 UNL -0.2193
  25    C       24.4010   44.2340   54.6250 C.ar  1 UNL  0.1180
  26    N       24.8540   44.4230   55.8740 N.ar  1 UNL -0.2362
  27    C       24.5610   43.7020   59.1380 C.ar  1 UNL -0.0400
  28    H       25.1222   41.2196   59.8897 H     1 UNL  0.1595
  29    H       25.2011   40.6362   61.5738 H     1 UNL  0.1595
  30    H       25.8000   45.3301   61.8758 H     1 UNL  0.0631
  31    H       25.6806   47.2392   60.2807 H     1 UNL  0.0623
  32    H       24.8458   46.8974   57.9584 H     1 UNL  0.0630
  33    H       21.9314   44.6540   57.5119 H     1 UNL  0.0685
  34    H       20.1904   44.8221   55.7733 H     1 UNL  0.1681
  35    H       18.5549   42.8714   55.2942 H     1 UNL  0.0646
  36    H       17.4884   41.5849   53.4367 H     1 UNL  0.0663
  37    H       20.6755   42.8009   50.7765 H     1 UNL  0.0663
  38    H       21.7322   44.0877   52.6381 H     1 UNL  0.0646
  39    H       25.1115   44.1136   53.7939 H     1 UNL  0.1064
  40    H       24.2435   42.6998   58.8142 H     1 UNL  0.0638
@<TRIPOS>BOND
    1     2     1 am
    2     3     2  2
    3     4     2  1
    4     5     4 ar
    5     6     5 ar
    6     7     6 ar
    7     8     7 ar
    8     9     8  1
    9    10     9 ar
   10    11    10 ar
   11    12    11  1
   12    13    12  1
   13    14    13 ar
   14    15    14 ar
   15    16    15 ar
   16    17    16  1
   17    18    17  1
   18    19    18  1
   19    20    18  1
   20    21    18  1
   21    22    16 ar
   22    23    22 ar
   23    23    13 ar
   24    24    11 ar
   25    25    24 ar
   26    26    25 ar
   27    26     9 ar
   28    27     8 ar
   29    27     4 ar
   30     1    28  1
   31     1    29  1
   32     5    30  1
   33     6    31  1
   34     7    32  1
   35    10    33  1
   36    12    34  1
   37    14    35  1
   38    15    36  1
   39    22    37  1
   40    23    38  1
   41    25    39  1
   42    27    40  1