@<TRIPOS>MOLECULE
UNK
20 20 0 0 0
SMALL
GASTEIGER

@<TRIPOS>ATOM
   1    C       -7.5070   59.4040   30.0580 C.3   1 UNL  0.0810
   2    O       -6.0880   59.3100   30.0670 O.3   1 UNL -0.4654
   3    C       -5.2700   60.2800   30.6540 C.2   1 UNL  0.3395
   4    O       -5.7860   61.2870   31.2130 O.2   1 UNL -0.2461
   5    C       -3.8310   60.1050   30.6740 C.ar  1 UNL  0.0826
   6    C       -3.2940   58.9380   30.1390 C.ar  1 UNL -0.0441
   7    C       -1.9170   58.7400   30.1430 C.ar  1 UNL -0.0425
   8    C       -1.0870   59.7150   30.6840 C.ar  1 UNL  0.0426
   9   Cl        0.6760   59.4670   30.6920 Cl    1 UNL -0.0843
  10    C       -1.6160   60.8850   31.2210 C.ar  1 UNL -0.0196
  11    C       -2.9940   61.0780   31.2150 C.ar  1 UNL  0.0476
  12    N       -3.5090   62.2610   31.7590 N.2   1 UNL -0.3980
  13    H       -7.8794   59.4287   31.0928 H     1 UNL  0.0670
  14    H       -7.8102   60.3242   29.5371 H     1 UNL  0.0670
  15    H       -7.9290   58.5318   29.5371 H     1 UNL  0.0670
  16    H       -3.9585   58.1719   29.7128 H     1 UNL  0.0633
  17    H       -1.4883   57.8189   29.7213 H     1 UNL  0.0639
  18    H       -0.9505   61.6505   31.6465 H     1 UNL  0.0661
  19    H       -4.5258   62.4251   31.7652 H     1 UNL  0.1562
  20    H       -2.8710   62.9672   32.1530 H     1 UNL  0.1562
@<TRIPOS>BOND
    1     2     1  1
    2     3     2  1
    3     4     3  2
    4     5     3  1
    5     6     5 ar
    6     7     6 ar
    7     8     7 ar
    8     9     8  1
    9    10     8 ar
   10    11    10 ar
   11    11     5 ar
   12    12    11  1
   13     1    13  1
   14     1    14  1
   15     1    15  1
   16     6    16  1
   17     7    17  1
   18    10    18  1
   19    12    19  1
   20    12    20  1