@<TRIPOS>MOLECULE
UNK
47 50 0 0 0
SMALL
GASTEIGER

@<TRIPOS>ATOM
   1    C       15.4370   63.7910    2.1640 C.3   1 UNL -0.0377
   2    C       14.0510   63.8050    2.7900 C.ar  1 UNL -0.0273
   3    C       13.7770   64.7350    3.7870 C.ar  1 UNL -0.0552
   4    C       12.5180   64.7710    4.3770 C.ar  1 UNL -0.0381
   5    C       11.5430   63.8710    3.9600 C.ar  1 UNL  0.0431
   6    N       10.2380   63.8990    4.5640 N.am  1 UNL -0.3219
   7    C        9.5170   65.1100    4.8490 C.2   1 UNL  0.2567
   8    O        9.6910   66.1270    4.1220 O.2   1 UNL -0.2689
   9    C        8.5320   65.1650    5.9560 C.ar  1 UNL  0.0580
  10    C        8.6870   64.3250    7.0530 C.ar  1 UNL -0.0464
  11    C        7.7620   64.3800    8.0890 C.ar  1 UNL -0.0430
  12    C        6.7050   65.2800    7.9940 C.ar  1 UNL  0.0268
  13    N        6.5770   66.0810    6.9260 N.ar  1 UNL -0.2639
  14    C        7.4560   66.0470    5.9130 C.ar  1 UNL  0.0395
  15    C       11.8100   62.9370    2.9640 C.ar  1 UNL -0.0145
  16    C       13.0720   62.9070    2.3780 C.ar  1 UNL  0.0459
  17    N       13.3550   61.9730    1.3740 N.pl3 1 UNL -0.3238
  18    C       13.4600   60.5700    1.6430 C.ar  1 UNL  0.2272
  19    N       12.7950   60.0590    2.6890 N.ar  1 UNL -0.2213
  20    C       12.8570   58.7530    2.9880 C.ar  1 UNL  0.0330
  21    C       13.6260   57.9040    2.1980 C.ar  1 UNL -0.0171
  22    C       14.3120   58.4430    1.1150 C.ar  1 UNL  0.0773
  23    C       15.1170   57.5650    0.2860 C.ar  1 UNL  0.0187
  24    C       15.0180   56.1870    0.4520 C.ar  1 UNL -0.0497
  25    C       15.7900   55.3490   -0.3450 C.ar  1 UNL -0.0431
  26    C       16.6400   55.9190   -1.2870 C.ar  1 UNL  0.0268
  27    N       16.7180   57.2510   -1.4280 N.ar  1 UNL -0.2640
  28    C       15.9840   58.0810   -0.6720 C.ar  1 UNL  0.0362
  29    N       14.2060   59.7600    0.8730 N.ar  1 UNL -0.2127
  30    H       16.1980   63.7833    2.9582 H     1 UNL  0.0280
  31    H       15.5487   62.8917    1.5405 H     1 UNL  0.0280
  32    H       15.5668   64.6879    1.5405 H     1 UNL  0.0280
  33    H       14.5558   65.4420    4.1089 H     1 UNL  0.0627
  34    H       12.2955   65.5044    5.1660 H     1 UNL  0.0645
  35    H        9.7950   63.0012    4.8060 H     1 UNL  0.1698
  36    H        9.5333   63.6239    7.1006 H     1 UNL  0.0632
  37    H        7.8635   63.7249    8.9668 H     1 UNL  0.0639
  38    H        5.9646   65.3352    8.8056 H     1 UNL  0.0840
  39    H        7.3265   66.7156    5.0492 H     1 UNL  0.0848
  40    H       11.0315   62.2294    2.6429 H     1 UNL  0.0667
  41    H       13.4924   62.3061    0.4091 H     1 UNL  0.1697
  42    H       12.3038   58.3558    3.8518 H     1 UNL  0.0842
  43    H       13.6899   56.8296    2.4252 H     1 UNL  0.0662
  44    H       14.3365   55.7652    1.2054 H     1 UNL  0.0631
  45    H       15.7297   54.2564   -0.2327 H     1 UNL  0.0639
  46    H       17.2566   55.2689   -1.9250 H     1 UNL  0.0840
  47    H       16.0675   59.1692   -0.8094 H     1 UNL  0.0847
@<TRIPOS>BOND
    1     2     1  1
    2     3     2 ar
    3     4     3 ar
    4     5     4 ar
    5     6     5  1
    6     7     6 am
    7     8     7  2
    8     9     7  1
    9    10     9 ar
   10    11    10 ar
   11    12    11 ar
   12    13    12 ar
   13    14     9 ar
   14    14    13 ar
   15    15     5 ar
   16    16    15 ar
   17    16     2 ar
   18    17    16  1
   19    18    17  1
   20    19    18 ar
   21    20    19 ar
   22    21    20 ar
   23    22    21 ar
   24    23    22  1
   25    24    23 ar
   26    25    24 ar
   27    26    25 ar
   28    27    26 ar
   29    28    23 ar
   30    28    27 ar
   31    29    22 ar
   32    29    18 ar
   33     1    30  1
   34     1    31  1
   35     1    32  1
   36     3    33  1
   37     4    34  1
   38     6    35  1
   39    10    36  1
   40    11    37  1
   41    12    38  1
   42    14    39  1
   43    15    40  1
   44    17    41  1
   45    20    42  1
   46    21    43  1
   47    24    44  1
   48    25    45  1
   49    26    46  1
   50    28    47  1