@<TRIPOS>MOLECULE
UNK
47 49 0 0 0
SMALL
GASTEIGER

@<TRIPOS>ATOM
   1    O       23.0470   43.0970   55.5860 O.2   1 UNL -0.2689
   2    C       21.9850   43.2560   56.2490 C.2   1 UNL  0.2552
   3    N       20.7590   42.6680   55.7820 N.am  1 UNL -0.3220
   4    C       20.4580   42.4480   54.3920 C.ar  1 UNL  0.0413
   5    C       21.3430   42.8980   53.4180 C.ar  1 UNL -0.0348
   6    C       21.0590   42.6890   52.0710 C.ar  1 UNL -0.0175
   7    C       19.8870   42.0290   51.7190 C.ar  1 UNL  0.1291
   8    O       19.6000   41.8210   50.4170 O.3   1 UNL -0.4058
   9    C       18.9730   40.6550   49.8870 C.3   1 UNL  0.5726
  10    F       17.7280   40.5120   50.4680 F     1 UNL -0.1323
  11    F       19.7310   39.5340   50.1750 F     1 UNL -0.1323
  12    F       18.8150   40.7780   48.5180 F     1 UNL -0.1323
  13    C       18.9950   41.5770   52.6870 C.ar  1 UNL -0.0175
  14    C       19.2870   41.7900   54.0300 C.ar  1 UNL -0.0348
  15    C       22.0300   44.0040   57.5290 C.ar  1 UNL  0.0402
  16    C       22.3810   45.3500   57.5330 C.ar  1 UNL -0.0494
  17    C       22.4170   46.0350   58.7430 C.ar  1 UNL -0.0610
  18    C       22.1100   45.3940   59.9390 C.ar  1 UNL -0.0534
  19    C       21.7610   44.0470   59.9120 C.ar  1 UNL  0.0070
  20    C       21.4220   43.3350   61.2120 C.3   1 UNL  0.1029
  21    N       19.9830   43.4500   61.5470 N.4   1 UNL -0.3274
  22    C       19.6260   44.8520   61.8070 C.3   1 UNL  0.1012
  23    C       18.1520   44.9570   62.1670 C.3   1 UNL  0.0960
  24    O       17.3480   44.4130   61.1300 O.3   1 UNL -0.3698
  25    C       17.6720   43.0560   60.8580 C.3   1 UNL  0.0960
  26    C       19.1360   42.9130   60.4710 C.3   1 UNL  0.1012
  27    C       21.7180   43.3420   58.7130 C.ar  1 UNL -0.0406
  28    H       20.0566   42.3885   56.4816 H     1 UNL  0.1698
  29    H       22.2665   43.4186   53.7116 H     1 UNL  0.0646
  30    H       21.7537   43.0419   51.2945 H     1 UNL  0.0663
  31    H       18.0707   41.0578   52.3936 H     1 UNL  0.0663
  32    H       18.5917   41.4380   54.8063 H     1 UNL  0.0646
  33    H       22.6266   45.8653   56.5927 H     1 UNL  0.0631
  34    H       22.6924   47.0999   58.7545 H     1 UNL  0.0623
  35    H       22.1426   45.9434   60.8914 H     1 UNL  0.0628
  36    H       21.6797   42.2703   61.1118 H     1 UNL  0.0979
  37    H       21.9987   43.8087   62.0201 H     1 UNL  0.0979
  38    H       19.8171   42.8932   62.3975 H     1 UNL  0.3480
  39    H       20.2326   45.2333   62.6417 H     1 UNL  0.0949
  40    H       19.8192   45.4469   60.9021 H     1 UNL  0.0949
  41    H       17.9662   44.4021   63.0984 H     1 UNL  0.0627
  42    H       17.8923   46.0176   62.3001 H     1 UNL  0.0627
  43    H       17.4767   42.4523   61.7566 H     1 UNL  0.0627
  44    H       17.0517   42.7087   60.0186 H     1 UNL  0.0627
  45    H       19.3717   41.8500   60.3149 H     1 UNL  0.0949
  46    H       19.3257   43.4712   59.5423 H     1 UNL  0.0949
  47    H       21.4416   42.2774   58.7011 H     1 UNL  0.0636
@<TRIPOS>BOND
    1     2     1  2
    2     3     2 am
    3     4     3  1
    4     5     4 ar
    5     6     5 ar
    6     7     6 ar
    7     8     7  1
    8     9     8  1
    9    10     9  1
   10    11     9  1
   11    12     9  1
   12    13     7 ar
   13    14    13 ar
   14    14     4 ar
   15    15     2  1
   16    16    15 ar
   17    17    16 ar
   18    18    17 ar
   19    19    18 ar
   20    20    19  1
   21    21    20  1
   22    22    21  1
   23    23    22  1
   24    24    23  1
   25    25    24  1
   26    26    25  1
   27    26    21  1
   28    27    19 ar
   29    27    15 ar
   30     3    28  1
   31     5    29  1
   32     6    30  1
   33    13    31  1
   34    14    32  1
   35    16    33  1
   36    17    34  1
   37    18    35  1
   38    20    36  1
   39    20    37  1
   40    21    38  1
   41    22    39  1
   42    22    40  1
   43    23    41  1
   44    23    42  1
   45    25    43  1
   46    25    44  1
   47    26    45  1
   48    26    46  1
   49    27    47  1