1FPU_PRC_1
foHydescor03222115283D 1   1.00000     0.00000     0
Hydescorer 1.1.0 fol007
 47 50  0  0  0  0            999 V2000
   23.6348   42.9204   54.2524 C   0  0  0  0  0  0  0  0  0  0  0  0
   22.9795   43.5817   55.4540 C   0  0  0  0  0  0  0  0  0  0  0  0
   23.5951   44.6901   56.0261 C   0  0  0  0  0  0  0  0  0  0  0  0
   23.0177   45.3158   57.1264 C   0  0  0  0  0  0  0  0  0  0  0  0
   21.8244   44.8220   57.6433 C   0  0  0  0  0  0  0  0  0  0  0  0
   21.2352   45.4442   58.7504 N   0  0  0  0  0  0  0  0  0  0  0  0
   21.9061   45.6559   60.0019 C   0  0  0  0  0  0  0  0  0  0  0  0
   21.2238   45.6728   61.0614 O   0  0  0  0  0  0  0  0  0  0  0  0
   23.3663   45.9026   60.0731 C   0  0  0  0  0  0  0  0  0  0  0  0
   24.2177   44.8658   60.4399 C   0  0  0  0  0  0  0  0  0  0  0  0
   25.5867   45.1010   60.5045 C   0  0  0  0  0  0  0  0  0  0  0  0
   26.0617   46.3718   60.1985 C   0  0  0  0  0  0  0  0  0  0  0  0
   25.2204   47.3557   59.8474 N   0  0  0  0  0  0  0  0  0  0  0  0
   23.8959   47.1544   59.7773 C   0  0  0  0  0  0  0  0  0  0  0  0
   21.2027   43.7141   57.0767 C   0  0  0  0  0  0  0  0  0  0  0  0
   21.7860   43.0933   55.9767 C   0  0  0  0  0  0  0  0  0  0  0  0
   21.1720   41.9773   55.3953 N   0  0  0  0  0  0  0  0  0  0  0  0
   20.4470   42.0452   54.1595 C   0  0  0  0  0  0  0  0  0  0  0  0
   20.2020   43.2472   53.6175 N   0  0  0  0  0  0  0  0  0  0  0  0
   19.5290   43.3711   52.4641 C   0  0  0  0  0  0  0  0  0  0  0  0
   19.0726   42.2309   51.8108 C   0  0  0  0  0  0  0  0  0  0  0  0
   19.3312   40.9890   52.3806 C   0  0  0  0  0  0  0  0  0  0  0  0
   18.8581   39.7939   51.7052 C   0  0  0  0  0  0  0  0  0  0  0  0
   17.9167   38.9827   52.3301 C   0  0  0  0  0  0  0  0  0  0  0  0
   17.4654   37.8396   51.6796 C   0  0  0  0  0  0  0  0  0  0  0  0
   17.9730   37.5437   50.4191 C   0  0  0  0  0  0  0  0  0  0  0  0
   18.8806   38.3415   49.8371 N   0  0  0  0  0  0  0  0  0  0  0  0
   19.3317   39.4499   50.4434 C   0  0  0  0  0  0  0  0  0  0  0  0
   20.0110   40.9377   53.5378 N   0  0  0  0  0  0  0  0  0  0  0  0
   23.0796   42.1436   53.9555 H   0  0  0  0  0  0  0  0  0  0  0  0
   23.7080   43.5823   53.5064 H   0  0  0  0  0  0  0  0  0  0  0  0
   24.5479   42.6004   54.5050 H   0  0  0  0  0  0  0  0  0  0  0  0
   24.4527   45.0371   55.6465 H   0  0  0  0  0  0  0  0  0  0  0  0
   23.4563   46.1127   57.5416 H   0  0  0  0  0  0  0  0  0  0  0  0
   20.2903   45.7601   58.6643 H   0  0  0  0  0  0  0  0  0  0  0  0
   23.8495   43.9612   60.6547 H   0  0  0  0  0  0  0  0  0  0  0  0
   26.2176   44.3704   60.7660 H   0  0  0  0  0  0  0  0  0  0  0  0
   27.0440   46.5546   60.2409 H   0  0  0  0  0  0  0  0  0  0  0  0
   23.2895   47.9042   59.5126 H   0  0  0  0  0  0  0  0  0  0  0  0
   20.3450   43.3672   57.4563 H   0  0  0  0  0  0  0  0  0  0  0  0
   21.2419   41.0954   55.8615 H   0  0  0  0  0  0  0  0  0  0  0  0
   19.3565   44.2766   52.0765 H   0  0  0  0  0  0  0  0  0  0  0  0
   18.5692   42.3028   50.9497 H   0  0  0  0  0  0  0  0  0  0  0  0
   17.5682   39.2190   53.2371 H   0  0  0  0  0  0  0  0  0  0  0  0
   16.7889   37.2419   52.1099 H   0  0  0  0  0  0  0  0  0  0  0  0
   17.6570   36.7247   49.9400 H   0  0  0  0  0  0  0  0  0  0  0  0
   20.0082   40.0288   49.9882 H   0  0  0  0  0  0  0  0  0  0  0  0
  1  2  1  0  0  0  0
  2  3  2  0  0  0  0
  3  4  1  0  0  0  0
  4  5  2  0  0  0  0
  5  6  1  0  0  0  0
  6  7  1  0  0  0  0
  7  8  2  0  0  0  0
  7  9  1  0  0  0  0
  9 10  2  0  0  0  0
 10 11  1  0  0  0  0
 11 12  2  0  0  0  0
 12 13  1  0  0  0  0
 13 14  2  0  0  0  0
  5 15  1  0  0  0  0
 15 16  2  0  0  0  0
 16 17  1  0  0  0  0
 17 18  1  0  0  0  0
 18 19  2  0  0  0  0
 19 20  1  0  0  0  0
 20 21  2  0  0  0  0
 21 22  1  0  0  0  0
 22 23  1  0  0  0  0
 23 24  2  0  0  0  0
 24 25  1  0  0  0  0
 25 26  2  0  0  0  0
 26 27  1  0  0  0  0
 27 28  2  0  0  0  0
 22 29  2  0  0  0  0
 16  2  1  0  0  0  0
 29 18  1  0  0  0  0
 14  9  1  0  0  0  0
 28 23  1  0  0  0  0
  1 30  1  0  0  0  0
  1 31  1  0  0  0  0
  1 32  1  0  0  0  0
  3 33  1  0  0  0  0
  4 34  1  0  0  0  0
  6 35  1  0  0  0  0
 10 36  1  0  0  0  0
 11 37  1  0  0  0  0
 12 38  1  0  0  0  0
 14 39  1  0  0  0  0
 15 40  1  0  0  0  0
 17 41  1  0  0  0  0
 20 42  1  0  0  0  0
 21 43  1  0  0  0  0
 24 44  1  0  0  0  0
 25 45  1  0  0  0  0
 26 46  1  0  0  0  0
 28 47  1  0  0  0  0
M  END
> <BIOSOLVEIT.HYDE_ESTIMATED_AFFINITY_LOWER_BOUNDARY [nM]>
16898954.574520

> <BIOSOLVEIT.HYDE_ESTIMATED_AFFINITY_UPPER_BOUNDARY [nM]>
1679011051.505323

> <BIOSOLVEIT.HYDE_LIGAND_EFFICIENCY range: ++, +, 0, -, -->
--

> <BIOSOLVEIT.HYDE_LIGAND_LIPOPHILIC_EFFICIENCY range: ++, +, 0, -, -->
--

> <BIOSOLVEIT.INTER_CLASH range: red, yellow, green>
green

> <BIOSOLVEIT.INTRA_CLASH range: red, yellow, green>
yellow

> <BIOSOLVEIT.LOGP>
4.23792

> <BIOSOLVEIT.MOLECULAR WEIGHT>
382.425

> <BIOSOLVEIT.MOLECULE_CHECKSUM>
LTQuNDE1Mzk7MC4xNTIyNTU=

> <BIOSOLVEIT.TORSION_QUALITY range: red, yellow, green, not rotatable>
red

> <BIOSOLVEIT.TPSA>
92.69

$$$$
1FPU_PRC_2
foHydescor03222115283D 1   1.00000     0.00000     0
Hydescorer 1.1.0 fol007
 47 50  0  0  0  0            999 V2000
   17.5597   43.4466   56.2590 C   0  0  0  0  0  0  0  0  0  0  0  0
   18.3594   43.0073   55.0432 C   0  0  0  0  0  0  0  0  0  0  0  0
   17.6993   42.3510   54.0097 C   0  0  0  0  0  0  0  0  0  0  0  0
   18.4058   41.9379   52.8846 C   0  0  0  0  0  0  0  0  0  0  0  0
   19.7718   42.1882   52.8072 C   0  0  0  0  0  0  0  0  0  0  0  0
   20.4922   41.7764   51.6795 N   0  0  0  0  0  0  0  0  0  0  0  0
   20.4049   40.4618   51.1091 C   0  0  0  0  0  0  0  0  0  0  0  0
   21.4133   39.9872   50.5203 O   0  0  0  0  0  0  0  0  0  0  0  0
   19.1501   39.6735   51.1525 C   0  0  0  0  0  0  0  0  0  0  0  0
   18.8211   38.9750   52.3094 C   0  0  0  0  0  0  0  0  0  0  0  0
   17.6429   38.2376   52.3465 C   0  0  0  0  0  0  0  0  0  0  0  0
   16.8280   38.2229   51.2194 C   0  0  0  0  0  0  0  0  0  0  0  0
   17.1669   38.9047   50.1152 N   0  0  0  0  0  0  0  0  0  0  0  0
   18.2979   39.6237   50.0543 C   0  0  0  0  0  0  0  0  0  0  0  0
   20.4392   42.8440   53.8367 C   0  0  0  0  0  0  0  0  0  0  0  0
   19.7262   43.2540   54.9588 C   0  0  0  0  0  0  0  0  0  0  0  0
   20.4021   43.9337   56.0319 N   0  0  0  0  0  0  0  0  0  0  0  0
   21.7969   43.9525   56.1587 C   0  0  0  0  0  0  0  0  0  0  0  0
   22.3408   43.7283   57.3641 N   0  0  0  0  0  0  0  0  0  0  0  0
   23.6697   43.7346   57.5446 C   0  0  0  0  0  0  0  0  0  0  0  0
   24.5076   43.9780   56.4613 C   0  0  0  0  0  0  0  0  0  0  0  0
   23.9346   44.2095   55.2156 C   0  0  0  0  0  0  0  0  0  0  0  0
   24.8021   44.4648   54.0795 C   0  0  0  0  0  0  0  0  0  0  0  0
   25.2253   45.7642   53.8208 C   0  0  0  0  0  0  0  0  0  0  0  0
   26.0567   46.0044   52.7324 C   0  0  0  0  0  0  0  0  0  0  0  0
   26.4396   44.9316   51.9344 C   0  0  0  0  0  0  0  0  0  0  0  0
   26.0181   43.6871   52.2043 N   0  0  0  0  0  0  0  0  0  0  0  0
   25.2160   43.4292   53.2482 C   0  0  0  0  0  0  0  0  0  0  0  0
   22.5962   44.1890   55.1059 N   0  0  0  0  0  0  0  0  0  0  0  0
   18.1669   43.9008   56.9109 H   0  0  0  0  0  0  0  0  0  0  0  0
   16.8416   44.0815   55.9740 H   0  0  0  0  0  0  0  0  0  0  0  0
   17.1446   42.6464   56.6918 H   0  0  0  0  0  0  0  0  0  0  0  0
   16.7169   42.1760   54.0753 H   0  0  0  0  0  0  0  0  0  0  0  0
   17.9360   41.4657   52.1387 H   0  0  0  0  0  0  0  0  0  0  0  0
   21.1041   42.4375   51.2454 H   0  0  0  0  0  0  0  0  0  0  0  0
   19.4252   39.0029   53.1058 H   0  0  0  0  0  0  0  0  0  0  0  0
   17.3864   37.7276   53.1676 H   0  0  0  0  0  0  0  0  0  0  0  0
   15.9777   37.6967   51.2325 H   0  0  0  0  0  0  0  0  0  0  0  0
   18.5281   40.1239   49.2196 H   0  0  0  0  0  0  0  0  0  0  0  0
   21.4216   43.0190   53.7709 H   0  0  0  0  0  0  0  0  0  0  0  0
   19.8526   44.4129   56.7163 H   0  0  0  0  0  0  0  0  0  0  0  0
   24.0554   43.5654   58.4515 H   0  0  0  0  0  0  0  0  0  0  0  0
   25.5010   43.9864   56.5759 H   0  0  0  0  0  0  0  0  0  0  0  0
   24.9349   46.5174   54.4110 H   0  0  0  0  0  0  0  0  0  0  0  0
   26.3731   46.9307   52.5274 H   0  0  0  0  0  0  0  0  0  0  0  0
   27.0375   45.0902   51.1487 H   0  0  0  0  0  0  0  0  0  0  0  0
   24.9157   42.4926   53.4288 H   0  0  0  0  0  0  0  0  0  0  0  0
  1  2  1  0  0  0  0
  2  3  2  0  0  0  0
  3  4  1  0  0  0  0
  4  5  2  0  0  0  0
  5  6  1  0  0  0  0
  6  7  1  0  0  0  0
  7  8  2  0  0  0  0
  7  9  1  0  0  0  0
  9 10  2  0  0  0  0
 10 11  1  0  0  0  0
 11 12  2  0  0  0  0
 12 13  1  0  0  0  0
 13 14  2  0  0  0  0
  5 15  1  0  0  0  0
 15 16  2  0  0  0  0
 16 17  1  0  0  0  0
 17 18  1  0  0  0  0
 18 19  2  0  0  0  0
 19 20  1  0  0  0  0
 20 21  2  0  0  0  0
 21 22  1  0  0  0  0
 22 23  1  0  0  0  0
 23 24  2  0  0  0  0
 24 25  1  0  0  0  0
 25 26  2  0  0  0  0
 26 27  1  0  0  0  0
 27 28  2  0  0  0  0
 22 29  2  0  0  0  0
 16  2  1  0  0  0  0
 29 18  1  0  0  0  0
 14  9  1  0  0  0  0
 28 23  1  0  0  0  0
  1 30  1  0  0  0  0
  1 31  1  0  0  0  0
  1 32  1  0  0  0  0
  3 33  1  0  0  0  0
  4 34  1  0  0  0  0
  6 35  1  0  0  0  0
 10 36  1  0  0  0  0
 11 37  1  0  0  0  0
 12 38  1  0  0  0  0
 14 39  1  0  0  0  0
 15 40  1  0  0  0  0
 17 41  1  0  0  0  0
 20 42  1  0  0  0  0
 21 43  1  0  0  0  0
 24 44  1  0  0  0  0
 25 45  1  0  0  0  0
 26 46  1  0  0  0  0
 28 47  1  0  0  0  0
M  END
> <BIOSOLVEIT.HYDE_ESTIMATED_AFFINITY_LOWER_BOUNDARY [nM]>
15108.087178

> <BIOSOLVEIT.HYDE_ESTIMATED_AFFINITY_UPPER_BOUNDARY [nM]>
1501077.787263

> <BIOSOLVEIT.HYDE_LIGAND_EFFICIENCY range: ++, +, 0, -, -->
--

> <BIOSOLVEIT.HYDE_LIGAND_LIPOPHILIC_EFFICIENCY range: ++, +, 0, -, -->
--

> <BIOSOLVEIT.INTER_CLASH range: red, yellow, green>
red

> <BIOSOLVEIT.INTRA_CLASH range: red, yellow, green>
yellow

> <BIOSOLVEIT.LOGP>
4.23792

> <BIOSOLVEIT.MOLECULAR WEIGHT>
382.425

> <BIOSOLVEIT.MOLECULE_CHECKSUM>
LTIxLjgxNzE7MC43NTIzMTQ=

> <BIOSOLVEIT.TORSION_QUALITY range: red, yellow, green, not rotatable>
red

> <BIOSOLVEIT.TPSA>
92.69

$$$$
1FPU_PRC_3
foHydescor03222115283D 1   1.00000     0.00000     0
Hydescorer 1.1.0 fol007
 47 50  0  0  0  0            999 V2000
   23.5963   42.7977   54.1511 C   0  0  0  0  0  0  0  0  0  0  0  0
   22.9485   43.4733   55.3489 C   0  0  0  0  0  0  0  0  0  0  0  0
   23.5788   44.5752   55.9173 C   0  0  0  0  0  0  0  0  0  0  0  0
   23.0087   45.2137   57.0139 C   0  0  0  0  0  0  0  0  0  0  0  0
   21.8078   44.7390   57.5312 C   0  0  0  0  0  0  0  0  0  0  0  0
   21.2258   45.3742   58.6347 N   0  0  0  0  0  0  0  0  0  0  0  0
   21.9110   45.6175   59.8727 C   0  0  0  0  0  0  0  0  0  0  0  0
   21.2430   45.6454   60.9410 O   0  0  0  0  0  0  0  0  0  0  0  0
   23.3687   45.8837   59.9190 C   0  0  0  0  0  0  0  0  0  0  0  0
   24.2387   44.8636   60.2894 C   0  0  0  0  0  0  0  0  0  0  0  0
   25.6052   45.1170   60.3308 C   0  0  0  0  0  0  0  0  0  0  0  0
   26.0594   46.3889   59.9986 C   0  0  0  0  0  0  0  0  0  0  0  0
   25.2006   47.3565   59.6445 N   0  0  0  0  0  0  0  0  0  0  0  0
   23.8779   47.1373   59.5966 C   0  0  0  0  0  0  0  0  0  0  0  0
   21.1713   43.6376   56.9682 C   0  0  0  0  0  0  0  0  0  0  0  0
   21.7475   43.0040   55.8717 C   0  0  0  0  0  0  0  0  0  0  0  0
   21.1186   41.8944   55.2940 N   0  0  0  0  0  0  0  0  0  0  0  0
   20.3877   41.9696   54.0623 C   0  0  0  0  0  0  0  0  0  0  0  0
   20.1822   43.1711   53.5032 N   0  0  0  0  0  0  0  0  0  0  0  0
   19.5058   43.3016   52.3525 C   0  0  0  0  0  0  0  0  0  0  0  0
   19.0038   42.1689   51.7201 C   0  0  0  0  0  0  0  0  0  0  0  0
   19.2217   40.9273   52.3074 C   0  0  0  0  0  0  0  0  0  0  0  0
   18.7009   39.7398   51.6539 C   0  0  0  0  0  0  0  0  0  0  0  0
   18.7812   39.6303   50.2697 C   0  0  0  0  0  0  0  0  0  0  0  0
   18.2822   38.4912   49.6478 C   0  0  0  0  0  0  0  0  0  0  0  0
   17.7163   37.4937   50.4347 C   0  0  0  0  0  0  0  0  0  0  0  0
   17.6502   37.6225   51.7682 N   0  0  0  0  0  0  0  0  0  0  0  0
   18.1245   38.7113   52.3921 C   0  0  0  0  0  0  0  0  0  0  0  0
   19.9075   40.8691   53.4607 N   0  0  0  0  0  0  0  0  0  0  0  0
   23.0305   42.0275   53.8566 H   0  0  0  0  0  0  0  0  0  0  0  0
   23.6800   43.4553   53.4024 H   0  0  0  0  0  0  0  0  0  0  0  0
   24.5044   42.4658   54.4063 H   0  0  0  0  0  0  0  0  0  0  0  0
   24.4418   44.9085   55.5376 H   0  0  0  0  0  0  0  0  0  0  0  0
   23.4579   46.0063   57.4264 H   0  0  0  0  0  0  0  0  0  0  0  0
   20.2758   45.6765   58.5560 H   0  0  0  0  0  0  0  0  0  0  0  0
   23.8852   43.9579   60.5233 H   0  0  0  0  0  0  0  0  0  0  0  0
   26.2489   44.3986   60.5943 H   0  0  0  0  0  0  0  0  0  0  0  0
   27.0397   46.5847   60.0240 H   0  0  0  0  0  0  0  0  0  0  0  0
   23.2581   47.8751   59.3293 H   0  0  0  0  0  0  0  0  0  0  0  0
   20.3082   43.3045   57.3479 H   0  0  0  0  0  0  0  0  0  0  0  0
   21.1819   41.0119   55.7601 H   0  0  0  0  0  0  0  0  0  0  0  0
   19.3633   44.2068   51.9520 H   0  0  0  0  0  0  0  0  0  0  0  0
   18.4970   42.2457   50.8614 H   0  0  0  0  0  0  0  0  0  0  0  0
   19.1934   40.3627   49.7277 H   0  0  0  0  0  0  0  0  0  0  0  0
   18.3293   38.3911   48.6540 H   0  0  0  0  0  0  0  0  0  0  0  0
   17.3537   36.6691   50.0005 H   0  0  0  0  0  0  0  0  0  0  0  0
   18.0638   38.7835   53.3876 H   0  0  0  0  0  0  0  0  0  0  0  0
  1  2  1  0  0  0  0
  2  3  2  0  0  0  0
  3  4  1  0  0  0  0
  4  5  2  0  0  0  0
  5  6  1  0  0  0  0
  6  7  1  0  0  0  0
  7  8  2  0  0  0  0
  7  9  1  0  0  0  0
  9 10  2  0  0  0  0
 10 11  1  0  0  0  0
 11 12  2  0  0  0  0
 12 13  1  0  0  0  0
 13 14  2  0  0  0  0
  5 15  1  0  0  0  0
 15 16  2  0  0  0  0
 16 17  1  0  0  0  0
 17 18  1  0  0  0  0
 18 19  2  0  0  0  0
 19 20  1  0  0  0  0
 20 21  2  0  0  0  0
 21 22  1  0  0  0  0
 22 23  1  0  0  0  0
 23 24  2  0  0  0  0
 24 25  1  0  0  0  0
 25 26  2  0  0  0  0
 26 27  1  0  0  0  0
 27 28  2  0  0  0  0
 22 29  2  0  0  0  0
 16  2  1  0  0  0  0
 29 18  1  0  0  0  0
 14  9  1  0  0  0  0
 28 23  1  0  0  0  0
  1 30  1  0  0  0  0
  1 31  1  0  0  0  0
  1 32  1  0  0  0  0
  3 33  1  0  0  0  0
  4 34  1  0  0  0  0
  6 35  1  0  0  0  0
 10 36  1  0  0  0  0
 11 37  1  0  0  0  0
 12 38  1  0  0  0  0
 14 39  1  0  0  0  0
 15 40  1  0  0  0  0
 17 41  1  0  0  0  0
 20 42  1  0  0  0  0
 21 43  1  0  0  0  0
 24 44  1  0  0  0  0
 25 45  1  0  0  0  0
 26 46  1  0  0  0  0
 28 47  1  0  0  0  0
M  END
> <BIOSOLVEIT.HYDE_ESTIMATED_AFFINITY_LOWER_BOUNDARY [nM]>
2847883.928995

> <BIOSOLVEIT.HYDE_ESTIMATED_AFFINITY_UPPER_BOUNDARY [nM]>
282954106.367995

> <BIOSOLVEIT.HYDE_LIGAND_EFFICIENCY range: ++, +, 0, -, -->
--

> <BIOSOLVEIT.HYDE_LIGAND_LIPOPHILIC_EFFICIENCY range: ++, +, 0, -, -->
--

> <BIOSOLVEIT.INTER_CLASH range: red, yellow, green>
green

> <BIOSOLVEIT.INTRA_CLASH range: red, yellow, green>
yellow

> <BIOSOLVEIT.LOGP>
4.23792

> <BIOSOLVEIT.MOLECULAR WEIGHT>
382.425

> <BIOSOLVEIT.MOLECULE_CHECKSUM>
LTguODI5NjE7MC4zMDQ0Njk=

> <BIOSOLVEIT.TORSION_QUALITY range: red, yellow, green, not rotatable>
red

> <BIOSOLVEIT.TPSA>
92.69

$$$$
6HD6_FYH_1
foHydescor03222115283D 1   1.00000     0.00000     0
Hydescorer 1.1.0 fol007
 47 49  0  0  0  0            999 V2000
   20.9672   44.4462   53.9479 O   0  0  0  0  0  0  0  0  0  0  0  0
   20.7238   43.7153   54.9469 C   0  0  0  0  0  0  0  0  0  0  0  0
   19.6952   42.7143   54.8636 N   0  0  0  0  0  0  0  0  0  0  0  0
   19.3333   42.0395   53.6462 C   0  0  0  0  0  0  0  0  0  0  0  0
   20.3239   41.4515   52.8659 C   0  0  0  0  0  0  0  0  0  0  0  0
   19.9831   40.7964   51.6865 C   0  0  0  0  0  0  0  0  0  0  0  0
   18.6473   40.7400   51.3028 C   0  0  0  0  0  0  0  0  0  0  0  0
   18.3038   40.1084   50.1609 O   0  0  0  0  0  0  0  0  0  0  0  0
   17.9534   38.7302   50.0548 C   0  0  0  0  0  0  0  0  0  0  0  0
   16.8466   38.4579   50.8389 F   0  0  0  0  0  0  0  0  0  0  0  0
   17.6891   38.4055   48.7363 F   0  0  0  0  0  0  0  0  0  0  0  0
   19.0129   37.9631   50.4985 F   0  0  0  0  0  0  0  0  0  0  0  0
   17.6499   41.3259   52.0766 C   0  0  0  0  0  0  0  0  0  0  0  0
   17.9996   41.9783   53.2542 C   0  0  0  0  0  0  0  0  0  0  0  0
   21.4507   43.9313   56.1827 C   0  0  0  0  0  0  0  0  0  0  0  0
   22.6790   44.5840   56.1581 C   0  0  0  0  0  0  0  0  0  0  0  0
   23.3622   44.7824   57.3537 C   0  0  0  0  0  0  0  0  0  0  0  0
   22.8344   44.3388   58.5619 C   0  0  0  0  0  0  0  0  0  0  0  0
   21.6042   43.6887   58.5631 C   0  0  0  0  0  0  0  0  0  0  0  0
   21.0203   43.2023   59.8711 C   0  0  0  0  0  0  0  0  0  0  0  0
   19.7042   43.7996   60.1406 N   0  3  0  0  0  0  0  0  0  0  0  0
   18.7864   42.8093   60.7223 C   0  0  0  0  0  0  0  0  0  0  0  0
   17.4069   43.4389   60.8439 C   0  0  0  0  0  0  0  0  0  0  0  0
   17.4730   44.8597   60.9166 O   0  0  0  0  0  0  0  0  0  0  0  0
   18.5692   45.3049   61.7052 C   0  0  0  0  0  0  0  0  0  0  0  0
   19.8985   44.9220   61.0719 C   0  0  0  0  0  0  0  0  0  0  0  0
   20.9041   43.4796   57.3793 C   0  0  0  0  0  0  0  0  0  0  0  0
   19.2033   42.4732   55.7002 H   0  0  0  0  0  0  0  0  0  0  0  0
   21.2807   41.4996   53.1528 H   0  0  0  0  0  0  0  0  0  0  0  0
   20.6901   40.3712   51.1215 H   0  0  0  0  0  0  0  0  0  0  0  0
   16.6932   41.2783   51.7893 H   0  0  0  0  0  0  0  0  0  0  0  0
   17.2924   42.4035   53.8192 H   0  0  0  0  0  0  0  0  0  0  0  0
   23.0652   44.9058   55.2936 H   0  0  0  0  0  0  0  0  0  0  0  0
   24.2457   45.2508   57.3444 H   0  0  0  0  0  0  0  0  0  0  0  0
   23.3319   44.4849   59.4169 H   0  0  0  0  0  0  0  0  0  0  0  0
   21.6440   43.4459   60.6139 H   0  0  0  0  0  0  0  0  0  0  0  0
   20.9218   42.2079   59.8312 H   0  0  0  0  0  0  0  0  0  0  0  0
   19.3176   44.1445   59.2853 H   0  0  0  0  0  0  0  0  0  0  0  0
   19.1136   42.5375   61.6274 H   0  0  0  0  0  0  0  0  0  0  0  0
   18.7388   42.0052   60.1297 H   0  0  0  0  0  0  0  0  0  0  0  0
   16.9663   43.0934   61.6725 H   0  0  0  0  0  0  0  0  0  0  0  0
   16.8631   43.1815   60.0451 H   0  0  0  0  0  0  0  0  0  0  0  0
   18.5084   44.8879   62.6120 H   0  0  0  0  0  0  0  0  0  0  0  0
   18.5247   46.3001   61.7922 H   0  0  0  0  0  0  0  0  0  0  0  0
   20.5413   44.6509   61.7883 H   0  0  0  0  0  0  0  0  0  0  0  0
   20.2666   45.7068   60.5732 H   0  0  0  0  0  0  0  0  0  0  0  0
   20.0206   43.0113   57.3885 H   0  0  0  0  0  0  0  0  0  0  0  0
  1  2  2  0  0  0  0
  2  3  1  0  0  0  0
  3  4  1  0  0  0  0
  4  5  2  0  0  0  0
  5  6  1  0  0  0  0
  6  7  2  0  0  0  0
  7  8  1  0  0  0  0
  8  9  1  0  0  0  0
  9 10  1  0  0  0  0
  9 11  1  0  0  0  0
  9 12  1  0  0  0  0
  7 13  1  0  0  0  0
 13 14  2  0  0  0  0
  2 15  1  0  0  0  0
 15 16  2  0  0  0  0
 16 17  1  0  0  0  0
 17 18  2  0  0  0  0
 18 19  1  0  0  0  0
 19 20  1  0  0  0  0
 20 21  1  0  0  0  0
 21 22  1  0  0  0  0
 22 23  1  0  0  0  0
 23 24  1  0  0  0  0
 24 25  1  0  0  0  0
 25 26  1  0  0  0  0
 19 27  2  0  0  0  0
 14  4  1  0  0  0  0
 27 15  1  0  0  0  0
 26 21  1  0  0  0  0
  3 28  1  0  0  0  0
  5 29  1  0  0  0  0
  6 30  1  0  0  0  0
 13 31  1  0  0  0  0
 14 32  1  0  0  0  0
 16 33  1  0  0  0  0
 17 34  1  0  0  0  0
 18 35  1  0  0  0  0
 20 36  1  0  0  0  0
 20 37  1  0  0  0  0
 21 38  1  0  0  0  0
 22 39  1  0  0  0  0
 22 40  1  0  0  0  0
 23 41  1  0  0  0  0
 23 42  1  0  0  0  0
 25 43  1  0  0  0  0
 25 44  1  0  0  0  0
 26 45  1  0  0  0  0
 26 46  1  0  0  0  0
 27 47  1  0  0  0  0
M  CHG  1  21   1
M  END
> <BIOSOLVEIT.HYDE_ESTIMATED_AFFINITY_LOWER_BOUNDARY [nM]>
459010.212367

> <BIOSOLVEIT.HYDE_ESTIMATED_AFFINITY_UPPER_BOUNDARY [nM]>
45605378.481841

> <BIOSOLVEIT.HYDE_LIGAND_EFFICIENCY range: ++, +, 0, -, -->
--

> <BIOSOLVEIT.HYDE_LIGAND_LIPOPHILIC_EFFICIENCY range: ++, +, 0, -, -->
--

> <BIOSOLVEIT.INTER_CLASH range: red, yellow, green>
green

> <BIOSOLVEIT.INTRA_CLASH range: red, yellow, green>
green

> <BIOSOLVEIT.LOGP>
2.2526

> <BIOSOLVEIT.MOLECULAR WEIGHT>
381.372

> <BIOSOLVEIT.MOLECULE_CHECKSUM>
LTEzLjM1NDM7MC40OTQ2MDY=

> <BIOSOLVEIT.TORSION_QUALITY range: red, yellow, green, not rotatable>
yellow

> <BIOSOLVEIT.TPSA>
52

$$$$
6HD6_FYH_2
foHydescor03222115283D 1   1.00000     0.00000     0
Hydescorer 1.1.0 fol007
 47 49  0  0  0  0            999 V2000
   20.4874   44.2930   53.1866 O   0  0  0  0  0  0  0  0  0  0  0  0
   20.8289   43.5128   54.1174 C   0  0  0  0  0  0  0  0  0  0  0  0
   20.2588   42.1948   54.1874 N   0  0  0  0  0  0  0  0  0  0  0  0
   19.8296   41.4474   53.0360 C   0  0  0  0  0  0  0  0  0  0  0  0
   20.7486   41.1318   52.0400 C   0  0  0  0  0  0  0  0  0  0  0  0
   20.3425   40.4090   50.9225 C   0  0  0  0  0  0  0  0  0  0  0  0
   19.0140   40.0108   50.8175 C   0  0  0  0  0  0  0  0  0  0  0  0
   18.6073   39.3100   49.7384 O   0  0  0  0  0  0  0  0  0  0  0  0
   17.8785   38.0850   49.7782 C   0  0  0  0  0  0  0  0  0  0  0  0
   16.6728   38.2684   50.4315 F   0  0  0  0  0  0  0  0  0  0  0  0
   17.6539   37.6219   48.4943 F   0  0  0  0  0  0  0  0  0  0  0  0
   18.6196   37.1448   50.4674 F   0  0  0  0  0  0  0  0  0  0  0  0
   18.0877   40.3224   51.8084 C   0  0  0  0  0  0  0  0  0  0  0  0
   18.5025   41.0450   52.9222 C   0  0  0  0  0  0  0  0  0  0  0  0
   21.7531   43.9765   55.1336 C   0  0  0  0  0  0  0  0  0  0  0  0
   22.9242   44.6273   54.7591 C   0  0  0  0  0  0  0  0  0  0  0  0
   23.7992   45.0652   55.7481 C   0  0  0  0  0  0  0  0  0  0  0  0
   23.5176   44.8606   57.0949 C   0  0  0  0  0  0  0  0  0  0  0  0
   22.3403   44.2078   57.4468 C   0  0  0  0  0  0  0  0  0  0  0  0
   22.0233   43.9801   58.9084 C   0  0  0  0  0  0  0  0  0  0  0  0
   20.5979   44.1886   59.1997 N   0  3  0  0  0  0  0  0  0  0  0  0
   20.4926   44.9524   60.4515 C   0  0  0  0  0  0  0  0  0  0  0  0
   19.0674   44.8845   60.9773 C   0  0  0  0  0  0  0  0  0  0  0  0
   18.1526   44.4948   59.9599 O   0  0  0  0  0  0  0  0  0  0  0  0
   18.4014   43.1861   59.4598 C   0  0  0  0  0  0  0  0  0  0  0  0
   19.8891   42.9066   59.3227 C   0  0  0  0  0  0  0  0  0  0  0  0
   21.4512   43.7614   56.4743 C   0  0  0  0  0  0  0  0  0  0  0  0
   20.1547   41.7736   55.0884 H   0  0  0  0  0  0  0  0  0  0  0  0
   21.7008   41.4245   52.1274 H   0  0  0  0  0  0  0  0  0  0  0  0
   20.9981   40.1786   50.2034 H   0  0  0  0  0  0  0  0  0  0  0  0
   17.1353   40.0303   51.7207 H   0  0  0  0  0  0  0  0  0  0  0  0
   17.8468   41.2754   53.6412 H   0  0  0  0  0  0  0  0  0  0  0  0
   23.1340   44.7782   53.7931 H   0  0  0  0  0  0  0  0  0  0  0  0
   24.6431   45.5341   55.4869 H   0  0  0  0  0  0  0  0  0  0  0  0
   24.1519   45.1781   57.7998 H   0  0  0  0  0  0  0  0  0  0  0  0
   22.5622   44.6175   59.4591 H   0  0  0  0  0  0  0  0  0  0  0  0
   22.2685   43.0412   59.1498 H   0  0  0  0  0  0  0  0  0  0  0  0
   20.1872   44.7189   58.4580 H   0  0  0  0  0  0  0  0  0  0  0  0
   20.7382   45.9065   60.2801 H   0  0  0  0  0  0  0  0  0  0  0  0
   21.1159   44.5646   61.1305 H   0  0  0  0  0  0  0  0  0  0  0  0
   18.8052   45.7859   61.3217 H   0  0  0  0  0  0  0  0  0  0  0  0
   19.0276   44.2184   61.7221 H   0  0  0  0  0  0  0  0  0  0  0  0
   17.9711   43.0957   58.5617 H   0  0  0  0  0  0  0  0  0  0  0  0
   18.0033   42.5183   60.0888 H   0  0  0  0  0  0  0  0  0  0  0  0
   20.0538   42.3510   58.5077 H   0  0  0  0  0  0  0  0  0  0  0  0
   20.2158   42.4173   60.1313 H   0  0  0  0  0  0  0  0  0  0  0  0
   20.6073   43.2928   56.7353 H   0  0  0  0  0  0  0  0  0  0  0  0
  1  2  2  0  0  0  0
  2  3  1  0  0  0  0
  3  4  1  0  0  0  0
  4  5  2  0  0  0  0
  5  6  1  0  0  0  0
  6  7  2  0  0  0  0
  7  8  1  0  0  0  0
  8  9  1  0  0  0  0
  9 10  1  0  0  0  0
  9 11  1  0  0  0  0
  9 12  1  0  0  0  0
  7 13  1  0  0  0  0
 13 14  2  0  0  0  0
  2 15  1  0  0  0  0
 15 16  2  0  0  0  0
 16 17  1  0  0  0  0
 17 18  2  0  0  0  0
 18 19  1  0  0  0  0
 19 20  1  0  0  0  0
 20 21  1  0  0  0  0
 21 22  1  0  0  0  0
 22 23  1  0  0  0  0
 23 24  1  0  0  0  0
 24 25  1  0  0  0  0
 25 26  1  0  0  0  0
 19 27  2  0  0  0  0
 14  4  1  0  0  0  0
 27 15  1  0  0  0  0
 26 21  1  0  0  0  0
  3 28  1  0  0  0  0
  5 29  1  0  0  0  0
  6 30  1  0  0  0  0
 13 31  1  0  0  0  0
 14 32  1  0  0  0  0
 16 33  1  0  0  0  0
 17 34  1  0  0  0  0
 18 35  1  0  0  0  0
 20 36  1  0  0  0  0
 20 37  1  0  0  0  0
 21 38  1  0  0  0  0
 22 39  1  0  0  0  0
 22 40  1  0  0  0  0
 23 41  1  0  0  0  0
 23 42  1  0  0  0  0
 25 43  1  0  0  0  0
 25 44  1  0  0  0  0
 26 45  1  0  0  0  0
 26 46  1  0  0  0  0
 27 47  1  0  0  0  0
M  CHG  1  21   1
M  END
> <BIOSOLVEIT.HYDE_ESTIMATED_AFFINITY_LOWER_BOUNDARY [nM]>
1332114566.560523

> <BIOSOLVEIT.HYDE_ESTIMATED_AFFINITY_UPPER_BOUNDARY [nM]>
132353458272.428070

> <BIOSOLVEIT.HYDE_LIGAND_EFFICIENCY range: ++, +, 0, -, -->
--

> <BIOSOLVEIT.HYDE_LIGAND_LIPOPHILIC_EFFICIENCY range: ++, +, 0, -, -->
--

> <BIOSOLVEIT.INTER_CLASH range: red, yellow, green>
green

> <BIOSOLVEIT.INTRA_CLASH range: red, yellow, green>
green

> <BIOSOLVEIT.LOGP>
2.2526

> <BIOSOLVEIT.MOLECULAR WEIGHT>
381.372

> <BIOSOLVEIT.MOLECULE_CHECKSUM>
Ni40MTA4ODsw

> <BIOSOLVEIT.TORSION_QUALITY range: red, yellow, green, not rotatable>
red

> <BIOSOLVEIT.TPSA>
52

$$$$
6HD6_FYH_3
foHydescor03222115283D 1   1.00000     0.00000     0
Hydescorer 1.1.0 fol007
 47 49  0  0  0  0            999 V2000
   20.7955   44.3951   53.5913 O   0  0  0  0  0  0  0  0  0  0  0  0
   21.1001   43.4921   54.4179 C   0  0  0  0  0  0  0  0  0  0  0  0
   20.3491   42.2662   54.4429 N   0  0  0  0  0  0  0  0  0  0  0  0
   19.7114   41.6961   53.2867 C   0  0  0  0  0  0  0  0  0  0  0  0
   20.4906   41.1518   52.2706 C   0  0  0  0  0  0  0  0  0  0  0  0
   19.8823   40.5978   51.1484 C   0  0  0  0  0  0  0  0  0  0  0  0
   18.4943   40.5975   51.0590 C   0  0  0  0  0  0  0  0  0  0  0  0
   17.8923   40.0639   49.9755 O   0  0  0  0  0  0  0  0  0  0  0  0
   17.5735   38.6844   49.8058 C   0  0  0  0  0  0  0  0  0  0  0  0
   16.7136   38.2671   50.8060 F   0  0  0  0  0  0  0  0  0  0  0  0
   16.9927   38.4782   48.5674 F   0  0  0  0  0  0  0  0  0  0  0  0
   18.7367   37.9432   49.8810 F   0  0  0  0  0  0  0  0  0  0  0  0
   17.7069   41.1402   52.0701 C   0  0  0  0  0  0  0  0  0  0  0  0
   18.3234   41.6914   53.1886 C   0  0  0  0  0  0  0  0  0  0  0  0
   22.1710   43.7256   55.3669 C   0  0  0  0  0  0  0  0  0  0  0  0
   21.8919   43.7674   56.7291 C   0  0  0  0  0  0  0  0  0  0  0  0
   22.9323   43.9925   57.6249 C   0  0  0  0  0  0  0  0  0  0  0  0
   24.2363   44.1749   57.1763 C   0  0  0  0  0  0  0  0  0  0  0  0
   24.4928   44.1288   55.8095 C   0  0  0  0  0  0  0  0  0  0  0  0
   25.9072   44.3252   55.3102 C   0  0  0  0  0  0  0  0  0  0  0  0
   26.0074   44.1346   53.8563 N   0  3  0  0  0  0  0  0  0  0  0  0
   27.4270   43.9691   53.5123 C   0  0  0  0  0  0  0  0  0  0  0  0
   27.6144   44.1271   52.0114 C   0  0  0  0  0  0  0  0  0  0  0  0
   26.3869   43.9647   51.3111 O   0  0  0  0  0  0  0  0  0  0  0  0
   25.4201   44.9533   51.6466 C   0  0  0  0  0  0  0  0  0  0  0  0
   25.4363   45.2789   53.1313 C   0  0  0  0  0  0  0  0  0  0  0  0
   23.4675   43.9049   54.8961 C   0  0  0  0  0  0  0  0  0  0  0  0
   20.2655   41.7823   55.3140 H   0  0  0  0  0  0  0  0  0  0  0  0
   21.4876   41.1588   52.3468 H   0  0  0  0  0  0  0  0  0  0  0  0
   20.4366   40.2046   50.4148 H   0  0  0  0  0  0  0  0  0  0  0  0
   16.7099   41.1339   51.9935 H   0  0  0  0  0  0  0  0  0  0  0  0
   17.7691   42.0844   53.9223 H   0  0  0  0  0  0  0  0  0  0  0  0
   20.9570   43.6375   57.0595 H   0  0  0  0  0  0  0  0  0  0  0  0
   22.7398   44.0237   58.6057 H   0  0  0  0  0  0  0  0  0  0  0  0
   24.9786   44.3367   57.8266 H   0  0  0  0  0  0  0  0  0  0  0  0
   26.5049   43.6648   55.7646 H   0  0  0  0  0  0  0  0  0  0  0  0
   26.2035   45.2533   55.5356 H   0  0  0  0  0  0  0  0  0  0  0  0
   25.5106   43.3052   53.6007 H   0  0  0  0  0  0  0  0  0  0  0  0
   27.7323   43.0586   53.7910 H   0  0  0  0  0  0  0  0  0  0  0  0
   27.9673   44.6624   53.9891 H   0  0  0  0  0  0  0  0  0  0  0  0
   28.2645   43.4381   51.6912 H   0  0  0  0  0  0  0  0  0  0  0  0
   27.9768   45.0401   51.8239 H   0  0  0  0  0  0  0  0  0  0  0  0
   24.5121   44.6149   51.3995 H   0  0  0  0  0  0  0  0  0  0  0  0
   25.6170   45.7868   51.1304 H   0  0  0  0  0  0  0  0  0  0  0  0
   24.5034   45.4477   53.4494 H   0  0  0  0  0  0  0  0  0  0  0  0
   25.9953   46.0923   53.2917 H   0  0  0  0  0  0  0  0  0  0  0  0
   23.6599   43.8733   53.9153 H   0  0  0  0  0  0  0  0  0  0  0  0
  1  2  2  0  0  0  0
  2  3  1  0  0  0  0
  3  4  1  0  0  0  0
  4  5  2  0  0  0  0
  5  6  1  0  0  0  0
  6  7  2  0  0  0  0
  7  8  1  0  0  0  0
  8  9  1  0  0  0  0
  9 10  1  0  0  0  0
  9 11  1  0  0  0  0
  9 12  1  0  0  0  0
  7 13  1  0  0  0  0
 13 14  2  0  0  0  0
  2 15  1  0  0  0  0
 15 16  2  0  0  0  0
 16 17  1  0  0  0  0
 17 18  2  0  0  0  0
 18 19  1  0  0  0  0
 19 20  1  0  0  0  0
 20 21  1  0  0  0  0
 21 22  1  0  0  0  0
 22 23  1  0  0  0  0
 23 24  1  0  0  0  0
 24 25  1  0  0  0  0
 25 26  1  0  0  0  0
 19 27  2  0  0  0  0
 14  4  1  0  0  0  0
 27 15  1  0  0  0  0
 26 21  1  0  0  0  0
  3 28  1  0  0  0  0
  5 29  1  0  0  0  0
  6 30  1  0  0  0  0
 13 31  1  0  0  0  0
 14 32  1  0  0  0  0
 16 33  1  0  0  0  0
 17 34  1  0  0  0  0
 18 35  1  0  0  0  0
 20 36  1  0  0  0  0
 20 37  1  0  0  0  0
 21 38  1  0  0  0  0
 22 39  1  0  0  0  0
 22 40  1  0  0  0  0
 23 41  1  0  0  0  0
 23 42  1  0  0  0  0
 25 43  1  0  0  0  0
 25 44  1  0  0  0  0
 26 45  1  0  0  0  0
 26 46  1  0  0  0  0
 27 47  1  0  0  0  0
M  CHG  1  21   1
M  END
> <BIOSOLVEIT.HYDE_ESTIMATED_AFFINITY_LOWER_BOUNDARY [nM]>
6457.513984

> <BIOSOLVEIT.HYDE_ESTIMATED_AFFINITY_UPPER_BOUNDARY [nM]>
641592.194151

> <BIOSOLVEIT.HYDE_LIGAND_EFFICIENCY range: ++, +, 0, -, -->
-

> <BIOSOLVEIT.HYDE_LIGAND_LIPOPHILIC_EFFICIENCY range: ++, +, 0, -, -->
--

> <BIOSOLVEIT.INTER_CLASH range: red, yellow, green>
green

> <BIOSOLVEIT.INTRA_CLASH range: red, yellow, green>
yellow

> <BIOSOLVEIT.LOGP>
2.2526

> <BIOSOLVEIT.MOLECULAR WEIGHT>
381.372

> <BIOSOLVEIT.MOLECULE_CHECKSUM>
LTIzLjkyNDI7MC44ODYwODE=

> <BIOSOLVEIT.TORSION_QUALITY range: red, yellow, green, not rotatable>
red

> <BIOSOLVEIT.TPSA>
52

$$$$
6HD4_FYW_1
foHydescor03222115283D 1   1.00000     0.00000     0
Hydescorer 1.1.0 fol007
 50 53  0  0  0  0            999 V2000
   26.3754   46.9624   63.9564 O   0  0  0  0  0  0  0  0  0  0  0  0
   26.5788   46.1647   63.0019 C   0  0  0  0  0  0  0  0  0  0  0  0
   27.9337   45.8231   62.6635 N   0  0  0  0  0  0  0  0  0  0  0  0
   28.3790   45.4793   61.3395 C   0  0  0  0  0  0  0  0  0  0  0  0
   28.6939   46.4898   60.4364 C   0  0  0  0  0  0  0  0  0  0  0  0
   29.1256   46.1667   59.1536 C   0  0  0  0  0  0  0  0  0  0  0  0
   29.2359   44.8283   58.7913 C   0  0  0  0  0  0  0  0  0  0  0  0
   29.6526   44.5018   57.5501 O   0  0  0  0  0  0  0  0  0  0  0  0
   31.0018   44.2255   57.1807 C   0  0  0  0  0  0  0  0  0  0  0  0
   31.4826   43.1477   57.9029 F   0  0  0  0  0  0  0  0  0  0  0  0
   31.7791   45.3322   57.4618 F   0  0  0  0  0  0  0  0  0  0  0  0
   31.0800   43.9582   55.8257 F   0  0  0  0  0  0  0  0  0  0  0  0
   28.9225   43.8109   59.6879 C   0  0  0  0  0  0  0  0  0  0  0  0
   28.4921   44.1430   60.9681 C   0  0  0  0  0  0  0  0  0  0  0  0
   25.4441   45.5894   62.3049 C   0  0  0  0  0  0  0  0  0  0  0  0
   24.5362   44.7554   62.9496 C   0  0  0  0  0  0  0  0  0  0  0  0
   23.4915   44.2320   62.2905 N   0  0  0  0  0  0  0  0  0  0  0  0
   23.2825   44.4904   60.9909 C   0  0  0  0  0  0  0  0  0  0  0  0
   22.1825   43.9277   60.3339 N   0  0  0  0  0  0  0  0  0  0  0  0
   22.0011   42.4983   60.0687 C   0  0  0  0  0  0  0  0  0  0  0  0
   20.4881   42.3921   59.9961 C   0  0  0  0  0  0  0  0  0  0  0  0
   20.1210   43.6275   59.2064 C   0  0  1  0  0  0  0  0  0  0  0  0
   18.7744   43.9661   59.4079 O   0  0  0  0  0  0  0  0  0  0  0  0
   21.0369   44.6732   59.8032 C   0  0  0  0  0  0  0  0  0  0  0  0
   24.1594   45.3177   60.2959 C   0  0  0  0  0  0  0  0  0  0  0  0
   23.9660   45.6194   58.8907 C   0  0  0  0  0  0  0  0  0  0  0  0
   23.6795   46.9139   58.4709 C   0  0  0  0  0  0  0  0  0  0  0  0
   23.5068   47.1722   57.1667 N   0  0  0  0  0  0  0  0  0  0  0  0
   23.6038   46.2004   56.2471 C   0  0  0  0  0  0  0  0  0  0  0  0
   23.8799   44.9440   56.6262 N   0  0  0  0  0  0  0  0  0  0  0  0
   24.0629   44.6321   57.9164 C   0  0  0  0  0  0  0  0  0  0  0  0
   25.2499   45.8728   60.9570 C   0  0  0  0  0  0  0  0  0  0  0  0
   28.6123   45.8247   63.3980 H   0  0  0  0  0  0  0  0  0  0  0  0
   28.6098   47.4482   60.7091 H   0  0  0  0  0  0  0  0  0  0  0  0
   29.3538   46.8882   58.4999 H   0  0  0  0  0  0  0  0  0  0  0  0
   29.0059   42.8526   59.4147 H   0  0  0  0  0  0  0  0  0  0  0  0
   28.2639   43.4214   61.6217 H   0  0  0  0  0  0  0  0  0  0  0  0
   24.6641   44.5430   63.9184 H   0  0  0  0  0  0  0  0  0  0  0  0
   22.3712   41.9396   60.8109 H   0  0  0  0  0  0  0  0  0  0  0  0
   22.4278   42.2302   59.2050 H   0  0  0  0  0  0  0  0  0  0  0  0
   20.0788   42.4097   60.9084 H   0  0  0  0  0  0  0  0  0  0  0  0
   20.2052   41.5596   59.5199 H   0  0  0  0  0  0  0  0  0  0  0  0
   20.3140   43.4985   58.2337 H   0  0  0  0  0  0  0  0  0  0  0  0
   18.4066   44.3799   58.5751 H   0  0  0  0  0  0  0  0  0  0  0  0
   20.5716   45.1689   60.5365 H   0  0  0  0  0  0  0  0  0  0  0  0
   21.3349   45.3196   59.1008 H   0  0  0  0  0  0  0  0  0  0  0  0
   23.6023   47.6517   59.1415 H   0  0  0  0  0  0  0  0  0  0  0  0
   23.4702   46.4127   55.2792 H   0  0  0  0  0  0  0  0  0  0  0  0
   24.2692   43.6893   58.1785 H   0  0  0  0  0  0  0  0  0  0  0  0
   25.8873   46.4690   60.4688 H   0  0  0  0  0  0  0  0  0  0  0  0
  1  2  2  0  0  0  0
  2  3  1  0  0  0  0
  3  4  1  0  0  0  0
  4  5  2  0  0  0  0
  5  6  1  0  0  0  0
  6  7  2  0  0  0  0
  7  8  1  0  0  0  0
  8  9  1  0  0  0  0
  9 10  1  0  0  0  0
  9 11  1  0  0  0  0
  9 12  1  0  0  0  0
  7 13  1  0  0  0  0
 13 14  2  0  0  0  0
  2 15  1  0  0  0  0
 15 16  2  0  0  0  0
 16 17  1  0  0  0  0
 17 18  2  0  0  0  0
 18 19  1  0  0  0  0
 19 20  1  0  0  0  0
 20 21  1  0  0  0  0
 21 22  1  0  0  0  0
 22 23  1  0  0  0  0
 22 24  1  0  0  0  0
 18 25  1  0  0  0  0
 25 26  1  0  0  0  0
 26 27  2  0  0  0  0
 27 28  1  0  0  0  0
 28 29  2  0  0  0  0
 29 30  1  0  0  0  0
 30 31  2  0  0  0  0
 25 32  2  0  0  0  0
 14  4  1  0  0  0  0
 32 15  1  0  0  0  0
 24 19  1  0  0  0  0
 31 26  1  0  0  0  0
  3 33  1  0  0  0  0
  5 34  1  0  0  0  0
  6 35  1  0  0  0  0
 13 36  1  0  0  0  0
 14 37  1  0  0  0  0
 16 38  1  0  0  0  0
 20 39  1  0  0  0  0
 20 40  1  0  0  0  0
 21 41  1  0  0  0  0
 21 42  1  0  0  0  0
 22 43  1  0  0  0  0
 23 44  1  0  0  0  0
 24 45  1  0  0  0  0
 24 46  1  0  0  0  0
 27 47  1  0  0  0  0
 29 48  1  0  0  0  0
 31 49  1  0  0  0  0
 32 50  1  0  0  0  0
M  END
> <BIOSOLVEIT.HYDE_ESTIMATED_AFFINITY_LOWER_BOUNDARY [nM]>
1589081.886475

> <BIOSOLVEIT.HYDE_ESTIMATED_AFFINITY_UPPER_BOUNDARY [nM]>
157884680.816926

> <BIOSOLVEIT.HYDE_LIGAND_EFFICIENCY range: ++, +, 0, -, -->
--

> <BIOSOLVEIT.HYDE_LIGAND_LIPOPHILIC_EFFICIENCY range: ++, +, 0, -, -->
--

> <BIOSOLVEIT.INTER_CLASH range: red, yellow, green>
green

> <BIOSOLVEIT.INTRA_CLASH range: red, yellow, green>
green

> <BIOSOLVEIT.LOGP>
3.2605

> <BIOSOLVEIT.MOLECULAR WEIGHT>
445.399

> <BIOSOLVEIT.MOLECULE_CHECKSUM>
LTEwLjI3NTk7MC4zMjExMjE=

> <BIOSOLVEIT.TORSION_QUALITY range: red, yellow, green, not rotatable>
red

> <BIOSOLVEIT.TPSA>
100.47

$$$$
6HD4_FYW_2
foHydescor03222115283D 1   1.00000     0.00000     0
Hydescorer 1.1.0 fol007
 50 53  0  0  0  0            999 V2000
   25.0221   49.7488   58.7265 O   0  0  0  0  0  0  0  0  0  0  0  0
   24.5584   48.5770   58.7042 C   0  0  0  0  0  0  0  0  0  0  0  0
   23.5500   48.2145   59.6626 N   0  0  0  0  0  0  0  0  0  0  0  0
   23.3661   46.8873   60.1868 C   0  0  0  0  0  0  0  0  0  0  0  0
   24.3390   46.3343   61.0135 C   0  0  0  0  0  0  0  0  0  0  0  0
   24.1697   45.0515   61.5253 C   0  0  0  0  0  0  0  0  0  0  0  0
   23.0221   44.3364   61.1993 C   0  0  0  0  0  0  0  0  0  0  0  0
   22.8463   43.0912   61.6886 O   0  0  0  0  0  0  0  0  0  0  0  0
   21.6627   42.3092   61.5436 C   0  0  0  0  0  0  0  0  0  0  0  0
   21.3926   42.0972   60.2033 F   0  0  0  0  0  0  0  0  0  0  0  0
   20.6029   42.9913   62.1090 F   0  0  0  0  0  0  0  0  0  0  0  0
   21.8099   41.0967   62.1931 F   0  0  0  0  0  0  0  0  0  0  0  0
   22.0439   44.8813   60.3727 C   0  0  0  0  0  0  0  0  0  0  0  0
   22.2213   46.1645   59.8659 C   0  0  0  0  0  0  0  0  0  0  0  0
   25.0262   47.6486   57.6923 C   0  0  0  0  0  0  0  0  0  0  0  0
   26.3229   47.7057   57.1914 C   0  0  0  0  0  0  0  0  0  0  0  0
   26.7402   46.8392   56.2562 N   0  0  0  0  0  0  0  0  0  0  0  0
   25.9278   45.8890   55.7694 C   0  0  0  0  0  0  0  0  0  0  0  0
   26.3957   45.0013   54.7941 N   0  0  0  0  0  0  0  0  0  0  0  0
   26.8414   43.6293   55.0489 C   0  0  0  0  0  0  0  0  0  0  0  0
   26.5788   42.9699   53.7064 C   0  0  0  0  0  0  0  0  0  0  0  0
   27.0497   44.0284   52.7357 C   0  0  1  0  0  0  0  0  0  0  0  0
   26.4901   43.8243   51.4654 O   0  0  0  0  0  0  0  0  0  0  0  0
   26.5182   45.2981   53.3634 C   0  0  0  0  0  0  0  0  0  0  0  0
   24.6202   45.7862   56.2341 C   0  0  0  0  0  0  0  0  0  0  0  0
   23.7133   44.7724   55.7313 C   0  0  0  0  0  0  0  0  0  0  0  0
   23.0785   43.8890   56.5975 C   0  0  0  0  0  0  0  0  0  0  0  0
   22.2416   42.9605   56.1127 N   0  0  0  0  0  0  0  0  0  0  0  0
   22.0005   42.8620   54.7969 C   0  0  0  0  0  0  0  0  0  0  0  0
   22.5995   43.7026   53.9407 N   0  0  0  0  0  0  0  0  0  0  0  0
   23.4436   44.6493   54.3728 C   0  0  0  0  0  0  0  0  0  0  0  0
   24.1639   46.6727   57.2037 C   0  0  0  0  0  0  0  0  0  0  0  0
   22.9348   48.9332   59.9867 H   0  0  0  0  0  0  0  0  0  0  0  0
   25.1599   46.8587   61.2398 H   0  0  0  0  0  0  0  0  0  0  0  0
   24.8649   44.6485   62.1204 H   0  0  0  0  0  0  0  0  0  0  0  0
   21.2234   44.3567   60.1458 H   0  0  0  0  0  0  0  0  0  0  0  0
   21.5260   46.5675   59.2708 H   0  0  0  0  0  0  0  0  0  0  0  0
   26.9530   48.4029   57.5334 H   0  0  0  0  0  0  0  0  0  0  0  0
   26.3063   43.2009   55.7770 H   0  0  0  0  0  0  0  0  0  0  0  0
   27.8122   43.5991   55.2869 H   0  0  0  0  0  0  0  0  0  0  0  0
   25.6064   42.7716   53.5835 H   0  0  0  0  0  0  0  0  0  0  0  0
   27.1062   42.1261   53.6073 H   0  0  0  0  0  0  0  0  0  0  0  0
   28.0484   44.0469   52.6860 H   0  0  0  0  0  0  0  0  0  0  0  0
   25.8523   44.5663   51.2590 H   0  0  0  0  0  0  0  0  0  0  0  0
   25.6263   45.5331   52.9769 H   0  0  0  0  0  0  0  0  0  0  0  0
   27.1552   46.0548   53.2161 H   0  0  0  0  0  0  0  0  0  0  0  0
   23.2461   43.9462   57.5817 H   0  0  0  0  0  0  0  0  0  0  0  0
   21.3741   42.1618   54.4544 H   0  0  0  0  0  0  0  0  0  0  0  0
   23.8795   45.2671   53.7184 H   0  0  0  0  0  0  0  0  0  0  0  0
   23.2264   46.6092   57.5459 H   0  0  0  0  0  0  0  0  0  0  0  0
  1  2  2  0  0  0  0
  2  3  1  0  0  0  0
  3  4  1  0  0  0  0
  4  5  2  0  0  0  0
  5  6  1  0  0  0  0
  6  7  2  0  0  0  0
  7  8  1  0  0  0  0
  8  9  1  0  0  0  0
  9 10  1  0  0  0  0
  9 11  1  0  0  0  0
  9 12  1  0  0  0  0
  7 13  1  0  0  0  0
 13 14  2  0  0  0  0
  2 15  1  0  0  0  0
 15 16  2  0  0  0  0
 16 17  1  0  0  0  0
 17 18  2  0  0  0  0
 18 19  1  0  0  0  0
 19 20  1  0  0  0  0
 20 21  1  0  0  0  0
 21 22  1  0  0  0  0
 22 23  1  0  0  0  0
 22 24  1  0  0  0  0
 18 25  1  0  0  0  0
 25 26  1  0  0  0  0
 26 27  2  0  0  0  0
 27 28  1  0  0  0  0
 28 29  2  0  0  0  0
 29 30  1  0  0  0  0
 30 31  2  0  0  0  0
 25 32  2  0  0  0  0
 14  4  1  0  0  0  0
 32 15  1  0  0  0  0
 24 19  1  0  0  0  0
 31 26  1  0  0  0  0
  3 33  1  0  0  0  0
  5 34  1  0  0  0  0
  6 35  1  0  0  0  0
 13 36  1  0  0  0  0
 14 37  1  0  0  0  0
 16 38  1  0  0  0  0
 20 39  1  0  0  0  0
 20 40  1  0  0  0  0
 21 41  1  0  0  0  0
 21 42  1  0  0  0  0
 22 43  1  0  0  0  0
 23 44  1  0  0  0  0
 24 45  1  0  0  0  0
 24 46  1  0  0  0  0
 27 47  1  0  0  0  0
 29 48  1  0  0  0  0
 31 49  1  0  0  0  0
 32 50  1  0  0  0  0
M  END
> <BIOSOLVEIT.HYDE_ESTIMATED_AFFINITY_LOWER_BOUNDARY [nM]>
7222299.895186

> <BIOSOLVEIT.HYDE_ESTIMATED_AFFINITY_UPPER_BOUNDARY [nM]>
717578196.203166

> <BIOSOLVEIT.HYDE_LIGAND_EFFICIENCY range: ++, +, 0, -, -->
--

> <BIOSOLVEIT.HYDE_LIGAND_LIPOPHILIC_EFFICIENCY range: ++, +, 0, -, -->
--

> <BIOSOLVEIT.INTER_CLASH range: red, yellow, green>
green

> <BIOSOLVEIT.INTRA_CLASH range: red, yellow, green>
green

> <BIOSOLVEIT.LOGP>
3.2605

> <BIOSOLVEIT.MOLECULAR WEIGHT>
445.399

> <BIOSOLVEIT.MOLECULE_CHECKSUM>
LTYuNTIyNzswLjIwMzgzNA==

> <BIOSOLVEIT.TORSION_QUALITY range: red, yellow, green, not rotatable>
red

> <BIOSOLVEIT.TPSA>
100.47

$$$$
6HD4_FYW_3
foHydescor03222115283D 1   1.00000     0.00000     0
Hydescorer 1.1.0 fol007
 50 53  0  0  0  0            999 V2000
   25.1965   49.9885   58.4545 O   0  0  0  0  0  0  0  0  0  0  0  0
   24.7012   48.8460   58.2601 C   0  0  0  0  0  0  0  0  0  0  0  0
   23.6604   48.3854   59.1382 N   0  0  0  0  0  0  0  0  0  0  0  0
   23.4273   47.0047   59.4688 C   0  0  0  0  0  0  0  0  0  0  0  0
   24.3298   46.3321   60.2865 C   0  0  0  0  0  0  0  0  0  0  0  0
   24.1126   44.9966   60.6116 C   0  0  0  0  0  0  0  0  0  0  0  0
   22.9881   44.3501   60.1095 C   0  0  0  0  0  0  0  0  0  0  0  0
   22.7663   43.0549   60.4167 O   0  0  0  0  0  0  0  0  0  0  0  0
   21.7660   42.5816   61.3160 C   0  0  0  0  0  0  0  0  0  0  0  0
   20.5103   42.9571   60.8726 F   0  0  0  0  0  0  0  0  0  0  0  0
   21.9835   43.1381   62.5613 F   0  0  0  0  0  0  0  0  0  0  0  0
   21.8359   41.2043   61.4248 F   0  0  0  0  0  0  0  0  0  0  0  0
   22.0803   45.0146   59.2904 C   0  0  0  0  0  0  0  0  0  0  0  0
   22.3052   46.3496   58.9709 C   0  0  0  0  0  0  0  0  0  0  0  0
   25.1673   48.0530   57.1382 C   0  0  0  0  0  0  0  0  0  0  0  0
   26.3347   48.3722   56.4523 C   0  0  0  0  0  0  0  0  0  0  0  0
   26.7524   47.6280   55.4171 N   0  0  0  0  0  0  0  0  0  0  0  0
   26.0642   46.5527   55.0049 C   0  0  0  0  0  0  0  0  0  0  0  0
   26.5302   45.7956   53.9172 N   0  0  0  0  0  0  0  0  0  0  0  0
   27.2888   44.5467   54.0021 C   0  0  0  0  0  0  0  0  0  0  0  0
   28.0634   44.5202   52.6997 C   0  0  0  0  0  0  0  0  0  0  0  0
   27.0156   45.0132   51.7234 C   0  0  1  0  0  0  0  0  0  0  0  0
   26.1024   44.0041   51.3821 O   0  0  0  0  0  0  0  0  0  0  0  0
   26.3675   46.1394   52.5055 C   0  0  0  0  0  0  0  0  0  0  0  0
   24.8890   46.1875   55.6542 C   0  0  0  0  0  0  0  0  0  0  0  0
   24.1184   45.0321   55.2366 C   0  0  0  0  0  0  0  0  0  0  0  0
   24.6734   43.7572   55.2597 C   0  0  0  0  0  0  0  0  0  0  0  0
   23.9432   42.7017   54.8719 N   0  0  0  0  0  0  0  0  0  0  0  0
   22.6761   42.8484   54.4567 C   0  0  0  0  0  0  0  0  0  0  0  0
   22.1176   44.0672   54.4259 N   0  0  0  0  0  0  0  0  0  0  0  0
   22.8028   45.1549   54.8039 C   0  0  0  0  0  0  0  0  0  0  0  0
   24.4352   46.9429   56.7302 C   0  0  0  0  0  0  0  0  0  0  0  0
   23.0577   49.0709   59.5469 H   0  0  0  0  0  0  0  0  0  0  0  0
   25.1347   46.8084   60.6407 H   0  0  0  0  0  0  0  0  0  0  0  0
   24.7572   44.5076   61.1991 H   0  0  0  0  0  0  0  0  0  0  0  0
   21.2759   44.5381   58.9357 H   0  0  0  0  0  0  0  0  0  0  0  0
   21.6605   46.8385   58.3833 H   0  0  0  0  0  0  0  0  0  0  0  0
   26.8703   49.1680   56.7349 H   0  0  0  0  0  0  0  0  0  0  0  0
   26.6761   43.7593   54.0706 H   0  0  0  0  0  0  0  0  0  0  0  0
   27.9082   44.5564   54.7872 H   0  0  0  0  0  0  0  0  0  0  0  0
   28.3684   43.5950   52.4736 H   0  0  0  0  0  0  0  0  0  0  0  0
   28.8528   45.1332   52.7305 H   0  0  0  0  0  0  0  0  0  0  0  0
   27.4543   45.3735   50.9002 H   0  0  0  0  0  0  0  0  0  0  0  0
   25.2446   44.1503   51.8747 H   0  0  0  0  0  0  0  0  0  0  0  0
   25.3971   46.2092   52.2745 H   0  0  0  0  0  0  0  0  0  0  0  0
   26.8213   47.0076   52.3048 H   0  0  0  0  0  0  0  0  0  0  0  0
   25.6166   43.6277   55.5654 H   0  0  0  0  0  0  0  0  0  0  0  0
   22.1480   42.0489   54.1701 H   0  0  0  0  0  0  0  0  0  0  0  0
   22.3679   46.0549   54.7747 H   0  0  0  0  0  0  0  0  0  0  0  0
   23.5921   46.6907   57.2052 H   0  0  0  0  0  0  0  0  0  0  0  0
  1  2  2  0  0  0  0
  2  3  1  0  0  0  0
  3  4  1  0  0  0  0
  4  5  2  0  0  0  0
  5  6  1  0  0  0  0
  6  7  2  0  0  0  0
  7  8  1  0  0  0  0
  8  9  1  0  0  0  0
  9 10  1  0  0  0  0
  9 11  1  0  0  0  0
  9 12  1  0  0  0  0
  7 13  1  0  0  0  0
 13 14  2  0  0  0  0
  2 15  1  0  0  0  0
 15 16  2  0  0  0  0
 16 17  1  0  0  0  0
 17 18  2  0  0  0  0
 18 19  1  0  0  0  0
 19 20  1  0  0  0  0
 20 21  1  0  0  0  0
 21 22  1  0  0  0  0
 22 23  1  0  0  0  0
 22 24  1  0  0  0  0
 18 25  1  0  0  0  0
 25 26  1  0  0  0  0
 26 27  2  0  0  0  0
 27 28  1  0  0  0  0
 28 29  2  0  0  0  0
 29 30  1  0  0  0  0
 30 31  2  0  0  0  0
 25 32  2  0  0  0  0
 14  4  1  0  0  0  0
 32 15  1  0  0  0  0
 24 19  1  0  0  0  0
 31 26  1  0  0  0  0
  3 33  1  0  0  0  0
  5 34  1  0  0  0  0
  6 35  1  0  0  0  0
 13 36  1  0  0  0  0
 14 37  1  0  0  0  0
 16 38  1  0  0  0  0
 20 39  1  0  0  0  0
 20 40  1  0  0  0  0
 21 41  1  0  0  0  0
 21 42  1  0  0  0  0
 22 43  1  0  0  0  0
 23 44  1  0  0  0  0
 24 45  1  0  0  0  0
 24 46  1  0  0  0  0
 27 47  1  0  0  0  0
 29 48  1  0  0  0  0
 31 49  1  0  0  0  0
 32 50  1  0  0  0  0
M  END
> <BIOSOLVEIT.HYDE_ESTIMATED_AFFINITY_LOWER_BOUNDARY [nM]>
16560966.852327

> <BIOSOLVEIT.HYDE_ESTIMATED_AFFINITY_UPPER_BOUNDARY [nM]>
1645429972.963895

> <BIOSOLVEIT.HYDE_LIGAND_EFFICIENCY range: ++, +, 0, -, -->
--

> <BIOSOLVEIT.HYDE_LIGAND_LIPOPHILIC_EFFICIENCY range: ++, +, 0, -, -->
--

> <BIOSOLVEIT.INTER_CLASH range: red, yellow, green>
yellow

> <BIOSOLVEIT.INTRA_CLASH range: red, yellow, green>
yellow

> <BIOSOLVEIT.LOGP>
3.2605

> <BIOSOLVEIT.MOLECULAR WEIGHT>
445.399

> <BIOSOLVEIT.MOLECULE_CHECKSUM>
LTQuNDY1NDg7MC4xMzk1NDY=

> <BIOSOLVEIT.TORSION_QUALITY range: red, yellow, green, not rotatable>
yellow

> <BIOSOLVEIT.TPSA>
100.47

$$$$
2QOH_P3Y_1
foHydescor03222115283D 1   1.00000     0.00000     0
Hydescorer 1.1.0 fol007
 48 51  0  0  0  0            999 V2000
   23.2696   43.2808   63.9353 C   0  0  0  0  0  0  0  0  0  0  0  0
   23.2734   43.1645   62.5170 O   0  0  0  0  0  0  0  0  0  0  0  0
   22.4510   43.9008   61.7392 C   0  0  0  0  0  0  0  0  0  0  0  0
   21.0781   43.7986   61.9376 C   0  0  0  0  0  0  0  0  0  0  0  0
   20.2042   44.5440   61.1526 C   0  0  0  0  0  0  0  0  0  0  0  0
   20.7032   45.3914   60.1689 C   0  0  0  0  0  0  0  0  0  0  0  0
   22.0765   45.4943   59.9702 C   0  0  0  0  0  0  0  0  0  0  0  0
   22.9502   44.7486   60.7550 C   0  0  0  0  0  0  0  0  0  0  0  0
   24.3824   44.8554   60.5475 C   0  0  0  0  0  0  0  0  0  0  0  0
   25.2994   45.1002   61.5264 C   0  0  0  0  0  0  0  0  0  0  0  0
   26.5236   45.1246   60.9266 N   0  0  0  0  0  0  0  0  0  0  0  0
   26.3826   44.9001   59.5779 C   0  0  0  0  0  0  0  0  0  0  0  0
   27.2393   44.8222   58.5465 N   0  0  0  0  0  0  0  0  0  0  0  0
   26.8280   44.5798   57.2915 C   0  0  0  0  0  0  0  0  0  0  0  0
   25.4817   44.3947   56.9882 C   0  0  0  0  0  0  0  0  0  0  0  0
   24.9961   44.1283   55.6481 C   0  0  0  0  0  0  0  0  0  0  0  0
   23.7961   43.4594   55.4314 C   0  0  0  0  0  0  0  0  0  0  0  0
   23.3626   43.2220   54.1842 N   0  0  0  0  0  0  0  0  0  0  0  0
   24.0647   43.6186   53.1124 C   0  0  0  0  0  0  0  0  0  0  0  0
   25.2714   44.2914   53.2715 C   0  0  0  0  0  0  0  0  0  0  0  0
   26.0630   44.7381   52.1010 C   0  0  0  0  0  0  0  0  0  0  0  0
   26.3670   43.8970   51.2107 O   0  0  0  0  0  0  0  0  0  0  0  0
   26.5072   46.1014   51.9617 N   0  0  0  0  0  0  0  0  0  0  0  0
   25.8304   47.0379   51.0610 C   0  0  0  0  0  0  0  0  0  0  0  0
   27.6940   46.5452   52.6932 C   0  0  0  0  0  0  0  0  0  0  0  0
   25.7437   44.5501   54.5539 C   0  0  0  0  0  0  0  0  0  0  0  0
   24.5675   44.4698   58.0308 C   0  0  0  0  0  0  0  0  0  0  0  0
   25.0509   44.7228   59.3082 C   0  0  0  0  0  0  0  0  0  0  0  0
   23.9464   42.6549   64.3229 H   0  0  0  0  0  0  0  0  0  0  0  0
   23.4976   44.2196   64.1935 H   0  0  0  0  0  0  0  0  0  0  0  0
   22.3622   43.0496   64.2864 H   0  0  0  0  0  0  0  0  0  0  0  0
   20.7192   43.1893   62.6447 H   0  0  0  0  0  0  0  0  0  0  0  0
   19.2172   44.4707   61.2956 H   0  0  0  0  0  0  0  0  0  0  0  0
   20.0749   45.9266   59.6043 H   0  0  0  0  0  0  0  0  0  0  0  0
   22.4353   46.1041   59.2635 H   0  0  0  0  0  0  0  0  0  0  0  0
   25.1102   45.2359   62.4989 H   0  0  0  0  0  0  0  0  0  0  0  0
   27.3922   45.2821   61.3966 H   0  0  0  0  0  0  0  0  0  0  0  0
   27.5048   44.5309   56.5569 H   0  0  0  0  0  0  0  0  0  0  0  0
   23.2516   43.1527   56.2121 H   0  0  0  0  0  0  0  0  0  0  0  0
   23.7185   43.4293   52.1936 H   0  0  0  0  0  0  0  0  0  0  0  0
   26.2838   47.9281   51.1038 H   0  0  0  0  0  0  0  0  0  0  0  0
   25.8704   46.6881   50.1251 H   0  0  0  0  0  0  0  0  0  0  0  0
   24.8750   47.1366   51.3395 H   0  0  0  0  0  0  0  0  0  0  0  0
   27.8690   47.5088   52.4912 H   0  0  0  0  0  0  0  0  0  0  0  0
   27.5417   46.4328   53.6752 H   0  0  0  0  0  0  0  0  0  0  0  0
   28.4823   45.9973   52.4133 H   0  0  0  0  0  0  0  0  0  0  0  0
   26.6091   45.0329   54.6873 H   0  0  0  0  0  0  0  0  0  0  0  0
   23.5890   44.3454   57.8667 H   0  0  0  0  0  0  0  0  0  0  0  0
  1  2  1  0  0  0  0
  2  3  1  0  0  0  0
  3  4  2  0  0  0  0
  4  5  1  0  0  0  0
  5  6  2  0  0  0  0
  6  7  1  0  0  0  0
  7  8  2  0  0  0  0
  8  9  1  0  0  0  0
  9 10  2  0  0  0  0
 10 11  1  0  0  0  0
 11 12  1  0  0  0  0
 12 13  2  0  0  0  0
 13 14  1  0  0  0  0
 14 15  2  0  0  0  0
 15 16  1  0  0  0  0
 16 17  2  0  0  0  0
 17 18  1  0  0  0  0
 18 19  2  0  0  0  0
 19 20  1  0  0  0  0
 20 21  1  0  0  0  0
 21 22  2  0  0  0  0
 21 23  1  0  0  0  0
 23 24  1  0  0  0  0
 23 25  1  0  0  0  0
 20 26  2  0  0  0  0
 15 27  1  0  0  0  0
 27 28  2  0  0  0  0
  8  3  1  0  0  0  0
 28  9  1  0  0  0  0
 28 12  1  0  0  0  0
 26 16  1  0  0  0  0
  1 29  1  0  0  0  0
  1 30  1  0  0  0  0
  1 31  1  0  0  0  0
  4 32  1  0  0  0  0
  5 33  1  0  0  0  0
  6 34  1  0  0  0  0
  7 35  1  0  0  0  0
 10 36  1  0  0  0  0
 11 37  1  0  0  0  0
 14 38  1  0  0  0  0
 17 39  1  0  0  0  0
 19 40  1  0  0  0  0
 24 41  1  0  0  0  0
 24 42  1  0  0  0  0
 24 43  1  0  0  0  0
 25 44  1  0  0  0  0
 25 45  1  0  0  0  0
 25 46  1  0  0  0  0
 26 47  1  0  0  0  0
 27 48  1  0  0  0  0
M  END
> <BIOSOLVEIT.HYDE_ESTIMATED_AFFINITY_LOWER_BOUNDARY [nM]>
26993.607318

> <BIOSOLVEIT.HYDE_ESTIMATED_AFFINITY_UPPER_BOUNDARY [nM]>
2681974.485837

> <BIOSOLVEIT.HYDE_LIGAND_EFFICIENCY range: ++, +, 0, -, -->
--

> <BIOSOLVEIT.HYDE_LIGAND_LIPOPHILIC_EFFICIENCY range: ++, +, 0, -, -->
--

> <BIOSOLVEIT.INTER_CLASH range: red, yellow, green>
green

> <BIOSOLVEIT.INTRA_CLASH range: red, yellow, green>
green

> <BIOSOLVEIT.LOGP>
4.0023

> <BIOSOLVEIT.MOLECULAR WEIGHT>
372.426

> <BIOSOLVEIT.MOLECULE_CHECKSUM>
LTIwLjM3ODQ7MC43Mjc4

> <BIOSOLVEIT.TORSION_QUALITY range: red, yellow, green, not rotatable>
red

> <BIOSOLVEIT.TPSA>
71.11

$$$$
2QOH_P3Y_2
foHydescor03222115283D 1   1.00000     0.00000     0
Hydescorer 1.1.0 fol007
 48 51  0  0  0  0            999 V2000
   23.7807   47.6174   57.9772 C   0  0  0  0  0  0  0  0  0  0  0  0
   22.7792   46.9133   58.7027 O   0  0  0  0  0  0  0  0  0  0  0  0
   23.0573   46.2612   59.8521 C   0  0  0  0  0  0  0  0  0  0  0  0
   23.7254   46.9462   60.8616 C   0  0  0  0  0  0  0  0  0  0  0  0
   24.0266   46.3024   62.0577 C   0  0  0  0  0  0  0  0  0  0  0  0
   23.6601   44.9737   62.2440 C   0  0  0  0  0  0  0  0  0  0  0  0
   22.9915   44.2881   61.2347 C   0  0  0  0  0  0  0  0  0  0  0  0
   22.6906   44.9317   60.0386 C   0  0  0  0  0  0  0  0  0  0  0  0
   21.9937   44.2167   58.9856 C   0  0  0  0  0  0  0  0  0  0  0  0
   20.7165   43.7471   59.0705 C   0  0  0  0  0  0  0  0  0  0  0  0
   20.4367   43.1401   57.8821 N   0  0  0  0  0  0  0  0  0  0  0  0
   21.5293   43.2223   57.0521 C   0  0  0  0  0  0  0  0  0  0  0  0
   21.7910   42.8023   55.8035 N   0  0  0  0  0  0  0  0  0  0  0  0
   22.9732   43.0248   55.2069 C   0  0  0  0  0  0  0  0  0  0  0  0
   23.9998   43.7072   55.8542 C   0  0  0  0  0  0  0  0  0  0  0  0
   25.2892   43.9706   55.2456 C   0  0  0  0  0  0  0  0  0  0  0  0
   26.4621   43.9484   55.9930 C   0  0  0  0  0  0  0  0  0  0  0  0
   27.6462   44.1943   55.4126 N   0  0  0  0  0  0  0  0  0  0  0  0
   27.7397   44.4670   54.1026 C   0  0  0  0  0  0  0  0  0  0  0  0
   26.5987   44.5020   53.3082 C   0  0  0  0  0  0  0  0  0  0  0  0
   26.6796   44.8012   51.8590 C   0  0  0  0  0  0  0  0  0  0  0  0
   26.5614   43.8560   51.0313 O   0  0  0  0  0  0  0  0  0  0  0  0
   26.9053   46.1382   51.3721 N   0  0  0  0  0  0  0  0  0  0  0  0
   27.0554   46.4160   49.9416 C   0  0  0  0  0  0  0  0  0  0  0  0
   27.0433   47.2346   52.3312 C   0  0  0  0  0  0  0  0  0  0  0  0
   25.3584   44.2508   53.8851 C   0  0  0  0  0  0  0  0  0  0  0  0
   23.7641   44.1550   57.1475 C   0  0  0  0  0  0  0  0  0  0  0  0
   22.5222   43.8964   57.7135 C   0  0  0  0  0  0  0  0  0  0  0  0
   23.3742   48.0285   57.1613 H   0  0  0  0  0  0  0  0  0  0  0  0
   24.1676   48.3361   58.5549 H   0  0  0  0  0  0  0  0  0  0  0  0
   24.5039   46.9826   57.7056 H   0  0  0  0  0  0  0  0  0  0  0  0
   23.9892   47.9014   60.7277 H   0  0  0  0  0  0  0  0  0  0  0  0
   24.5068   46.7951   62.7834 H   0  0  0  0  0  0  0  0  0  0  0  0
   23.8772   44.5110   63.1035 H   0  0  0  0  0  0  0  0  0  0  0  0
   22.7273   43.3330   61.3689 H   0  0  0  0  0  0  0  0  0  0  0  0
   20.1020   43.8316   59.8549 H   0  0  0  0  0  0  0  0  0  0  0  0
   19.5685   42.7017   57.6497 H   0  0  0  0  0  0  0  0  0  0  0  0
   23.1199   42.6923   54.2753 H   0  0  0  0  0  0  0  0  0  0  0  0
   26.4223   43.7474   56.9718 H   0  0  0  0  0  0  0  0  0  0  0  0
   28.6350   44.6461   53.6948 H   0  0  0  0  0  0  0  0  0  0  0  0
   27.2036   47.3956   49.8061 H   0  0  0  0  0  0  0  0  0  0  0  0
   27.8388   45.9078   49.5838 H   0  0  0  0  0  0  0  0  0  0  0  0
   26.2264   46.1343   49.4585 H   0  0  0  0  0  0  0  0  0  0  0  0
   27.1942   48.0916   51.8384 H   0  0  0  0  0  0  0  0  0  0  0  0
   26.2087   47.3067   52.8773 H   0  0  0  0  0  0  0  0  0  0  0  0
   27.8212   47.0549   52.9333 H   0  0  0  0  0  0  0  0  0  0  0  0
   24.5275   44.2714   53.3291 H   0  0  0  0  0  0  0  0  0  0  0  0
   24.4684   44.6495   57.6568 H   0  0  0  0  0  0  0  0  0  0  0  0
  1  2  1  0  0  0  0
  2  3  1  0  0  0  0
  3  4  2  0  0  0  0
  4  5  1  0  0  0  0
  5  6  2  0  0  0  0
  6  7  1  0  0  0  0
  7  8  2  0  0  0  0
  8  9  1  0  0  0  0
  9 10  2  0  0  0  0
 10 11  1  0  0  0  0
 11 12  1  0  0  0  0
 12 13  2  0  0  0  0
 13 14  1  0  0  0  0
 14 15  2  0  0  0  0
 15 16  1  0  0  0  0
 16 17  2  0  0  0  0
 17 18  1  0  0  0  0
 18 19  2  0  0  0  0
 19 20  1  0  0  0  0
 20 21  1  0  0  0  0
 21 22  2  0  0  0  0
 21 23  1  0  0  0  0
 23 24  1  0  0  0  0
 23 25  1  0  0  0  0
 20 26  2  0  0  0  0
 15 27  1  0  0  0  0
 27 28  2  0  0  0  0
  8  3  1  0  0  0  0
 28  9  1  0  0  0  0
 28 12  1  0  0  0  0
 26 16  1  0  0  0  0
  1 29  1  0  0  0  0
  1 30  1  0  0  0  0
  1 31  1  0  0  0  0
  4 32  1  0  0  0  0
  5 33  1  0  0  0  0
  6 34  1  0  0  0  0
  7 35  1  0  0  0  0
 10 36  1  0  0  0  0
 11 37  1  0  0  0  0
 14 38  1  0  0  0  0
 17 39  1  0  0  0  0
 19 40  1  0  0  0  0
 24 41  1  0  0  0  0
 24 42  1  0  0  0  0
 24 43  1  0  0  0  0
 25 44  1  0  0  0  0
 25 45  1  0  0  0  0
 25 46  1  0  0  0  0
 26 47  1  0  0  0  0
 27 48  1  0  0  0  0
M  END
> <BIOSOLVEIT.HYDE_ESTIMATED_AFFINITY_LOWER_BOUNDARY [nM]>
5262110.440161

> <BIOSOLVEIT.HYDE_ESTIMATED_AFFINITY_UPPER_BOUNDARY [nM]>
522821784.289126

> <BIOSOLVEIT.HYDE_LIGAND_EFFICIENCY range: ++, +, 0, -, -->
--

> <BIOSOLVEIT.HYDE_LIGAND_LIPOPHILIC_EFFICIENCY range: ++, +, 0, -, -->
--

> <BIOSOLVEIT.INTER_CLASH range: red, yellow, green>
green

> <BIOSOLVEIT.INTRA_CLASH range: red, yellow, green>
green

> <BIOSOLVEIT.LOGP>
4.0023

> <BIOSOLVEIT.MOLECULAR WEIGHT>
372.426

> <BIOSOLVEIT.MOLECULE_CHECKSUM>
LTcuMzA3NjQ7MC4yNjA5ODc=

> <BIOSOLVEIT.TORSION_QUALITY range: red, yellow, green, not rotatable>
yellow

> <BIOSOLVEIT.TPSA>
71.11

$$$$
2QOH_P3Y_3
foHydescor03222115283D 1   1.00000     0.00000     0
Hydescorer 1.1.0 fol007
 48 51  0  0  0  0            999 V2000
   21.5726   42.5189   62.3434 C   0  0  0  0  0  0  0  0  0  0  0  0
   22.6838   42.8922   61.5366 O   0  0  0  0  0  0  0  0  0  0  0  0
   23.0210   44.1853   61.3420 C   0  0  0  0  0  0  0  0  0  0  0  0
   23.7002   44.8560   62.3538 C   0  0  0  0  0  0  0  0  0  0  0  0
   24.0617   46.1888   62.1840 C   0  0  0  0  0  0  0  0  0  0  0  0
   23.7437   46.8507   61.0027 C   0  0  0  0  0  0  0  0  0  0  0  0
   23.0648   46.1802   59.9902 C   0  0  0  0  0  0  0  0  0  0  0  0
   22.7031   44.8476   60.1602 C   0  0  0  0  0  0  0  0  0  0  0  0
   21.9944   44.1484   59.1046 C   0  0  0  0  0  0  0  0  0  0  0  0
   20.7227   43.6661   59.2012 C   0  0  0  0  0  0  0  0  0  0  0  0
   20.4276   43.0812   58.0055 N   0  0  0  0  0  0  0  0  0  0  0  0
   21.5052   43.1897   57.1590 C   0  0  0  0  0  0  0  0  0  0  0  0
   21.7491   42.7975   55.8979 N   0  0  0  0  0  0  0  0  0  0  0  0
   22.9192   43.0421   55.2862 C   0  0  0  0  0  0  0  0  0  0  0  0
   23.9510   43.7200   55.9300 C   0  0  0  0  0  0  0  0  0  0  0  0
   25.2276   44.0067   55.3053 C   0  0  0  0  0  0  0  0  0  0  0  0
   26.4082   44.0199   56.0408 C   0  0  0  0  0  0  0  0  0  0  0  0
   27.5803   44.2871   55.4455 N   0  0  0  0  0  0  0  0  0  0  0  0
   27.6542   44.5476   54.1318 C   0  0  0  0  0  0  0  0  0  0  0  0
   26.5047   44.5475   53.3489 C   0  0  0  0  0  0  0  0  0  0  0  0
   26.5639   44.8329   51.8959 C   0  0  0  0  0  0  0  0  0  0  0  0
   26.4991   43.8721   51.0803 O   0  0  0  0  0  0  0  0  0  0  0  0
   26.7094   46.1747   51.3919 N   0  0  0  0  0  0  0  0  0  0  0  0
   26.8424   46.4427   49.9578 C   0  0  0  0  0  0  0  0  0  0  0  0
   26.7820   47.2894   52.3368 C   0  0  0  0  0  0  0  0  0  0  0  0
   25.2765   44.2737   53.9413 C   0  0  0  0  0  0  0  0  0  0  0  0
   23.7336   44.1392   57.2360 C   0  0  0  0  0  0  0  0  0  0  0  0
   22.5037   43.8585   57.8174 C   0  0  0  0  0  0  0  0  0  0  0  0
   21.4927   41.5222   62.3601 H   0  0  0  0  0  0  0  0  0  0  0  0
   21.7077   42.8581   63.2744 H   0  0  0  0  0  0  0  0  0  0  0  0
   20.7365   42.9140   61.9628 H   0  0  0  0  0  0  0  0  0  0  0  0
   23.9286   44.3803   63.2032 H   0  0  0  0  0  0  0  0  0  0  0  0
   24.5501   46.6708   62.9113 H   0  0  0  0  0  0  0  0  0  0  0  0
   24.0032   47.8088   60.8811 H   0  0  0  0  0  0  0  0  0  0  0  0
   22.8368   46.6559   59.1407 H   0  0  0  0  0  0  0  0  0  0  0  0
   20.1211   43.7293   59.9975 H   0  0  0  0  0  0  0  0  0  0  0  0
   19.5591   42.6404   57.7787 H   0  0  0  0  0  0  0  0  0  0  0  0
   23.0527   42.7298   54.3456 H   0  0  0  0  0  0  0  0  0  0  0  0
   26.3830   43.8286   57.0220 H   0  0  0  0  0  0  0  0  0  0  0  0
   28.5409   44.7432   53.7129 H   0  0  0  0  0  0  0  0  0  0  0  0
   26.9319   47.4276   49.8097 H   0  0  0  0  0  0  0  0  0  0  0  0
   27.6545   45.9775   49.6057 H   0  0  0  0  0  0  0  0  0  0  0  0
   26.0315   46.1059   49.4792 H   0  0  0  0  0  0  0  0  0  0  0  0
   26.8814   48.1475   51.8330 H   0  0  0  0  0  0  0  0  0  0  0  0
   25.9447   47.3186   52.8828 H   0  0  0  0  0  0  0  0  0  0  0  0
   27.5694   47.1641   52.9404 H   0  0  0  0  0  0  0  0  0  0  0  0
   24.4397   44.2690   53.3938 H   0  0  0  0  0  0  0  0  0  0  0  0
   24.4424   44.6292   57.7435 H   0  0  0  0  0  0  0  0  0  0  0  0
  1  2  1  0  0  0  0
  2  3  1  0  0  0  0
  3  4  2  0  0  0  0
  4  5  1  0  0  0  0
  5  6  2  0  0  0  0
  6  7  1  0  0  0  0
  7  8  2  0  0  0  0
  8  9  1  0  0  0  0
  9 10  2  0  0  0  0
 10 11  1  0  0  0  0
 11 12  1  0  0  0  0
 12 13  2  0  0  0  0
 13 14  1  0  0  0  0
 14 15  2  0  0  0  0
 15 16  1  0  0  0  0
 16 17  2  0  0  0  0
 17 18  1  0  0  0  0
 18 19  2  0  0  0  0
 19 20  1  0  0  0  0
 20 21  1  0  0  0  0
 21 22  2  0  0  0  0
 21 23  1  0  0  0  0
 23 24  1  0  0  0  0
 23 25  1  0  0  0  0
 20 26  2  0  0  0  0
 15 27  1  0  0  0  0
 27 28  2  0  0  0  0
  8  3  1  0  0  0  0
 28  9  1  0  0  0  0
 28 12  1  0  0  0  0
 26 16  1  0  0  0  0
  1 29  1  0  0  0  0
  1 30  1  0  0  0  0
  1 31  1  0  0  0  0
  4 32  1  0  0  0  0
  5 33  1  0  0  0  0
  6 34  1  0  0  0  0
  7 35  1  0  0  0  0
 10 36  1  0  0  0  0
 11 37  1  0  0  0  0
 14 38  1  0  0  0  0
 17 39  1  0  0  0  0
 19 40  1  0  0  0  0
 24 41  1  0  0  0  0
 24 42  1  0  0  0  0
 24 43  1  0  0  0  0
 25 44  1  0  0  0  0
 25 45  1  0  0  0  0
 25 46  1  0  0  0  0
 26 47  1  0  0  0  0
 27 48  1  0  0  0  0
M  END
> <BIOSOLVEIT.HYDE_ESTIMATED_AFFINITY_LOWER_BOUNDARY [nM]>
2026797.067247

> <BIOSOLVEIT.HYDE_ESTIMATED_AFFINITY_UPPER_BOUNDARY [nM]>
201374272.003640

> <BIOSOLVEIT.HYDE_LIGAND_EFFICIENCY range: ++, +, 0, -, -->
--

> <BIOSOLVEIT.HYDE_LIGAND_LIPOPHILIC_EFFICIENCY range: ++, +, 0, -, -->
--

> <BIOSOLVEIT.INTER_CLASH range: red, yellow, green>
green

> <BIOSOLVEIT.INTRA_CLASH range: red, yellow, green>
green

> <BIOSOLVEIT.LOGP>
4.0023

> <BIOSOLVEIT.MOLECULAR WEIGHT>
372.426

> <BIOSOLVEIT.MOLECULE_CHECKSUM>
LTkuNjcyNzU7MC4zNDU0NTU=

> <BIOSOLVEIT.TORSION_QUALITY range: red, yellow, green, not rotatable>
yellow

> <BIOSOLVEIT.TPSA>
71.11

$$$$
3MS9_MS9_1
foHydescor03222115283D 1   1.00000     0.00000     0
Hydescorer 1.1.0 fol007
 20 20  0  0  0  0            999 V2000
   22.2493   45.8399   56.2800 C   0  0  0  0  0  0  0  0  0  0  0  0
   21.3769   45.0779   55.4543 O   0  0  0  0  0  0  0  0  0  0  0  0
   21.8179   43.9922   54.6898 C   0  0  0  0  0  0  0  0  0  0  0  0
   23.0295   43.6433   54.7282 O   0  0  0  0  0  0  0  0  0  0  0  0
   20.8607   43.2379   53.9036 C   0  0  0  0  0  0  0  0  0  0  0  0
   21.2381   42.7967   52.6391 C   0  0  0  0  0  0  0  0  0  0  0  0
   20.3434   42.0705   51.8599 C   0  0  0  0  0  0  0  0  0  0  0  0
   19.0736   41.7920   52.3557 C   0  0  0  0  0  0  0  0  0  0  0  0
   17.9244   40.8633   51.3627 Cl  0  0  0  0  0  0  0  0  0  0  0  0
   18.6896   42.2303   53.6190 C   0  0  0  0  0  0  0  0  0  0  0  0
   19.5889   42.9559   54.3939 C   0  0  0  0  0  0  0  0  0  0  0  0
   19.1850   43.3886   55.6629 N   0  0  0  0  0  0  0  0  0  0  0  0
   21.7303   46.5637   56.7347 H   0  0  0  0  0  0  0  0  0  0  0  0
   22.6626   45.2435   56.9681 H   0  0  0  0  0  0  0  0  0  0  0  0
   22.9684   46.2482   55.7177 H   0  0  0  0  0  0  0  0  0  0  0  0
   22.1527   43.0016   52.2905 H   0  0  0  0  0  0  0  0  0  0  0  0
   20.6106   41.7512   50.9506 H   0  0  0  0  0  0  0  0  0  0  0  0
   17.7748   42.0255   53.9672 H   0  0  0  0  0  0  0  0  0  0  0  0
   19.3574   44.3316   55.9481 H   0  0  0  0  0  0  0  0  0  0  0  0
   18.7242   42.7549   56.2841 H   0  0  0  0  0  0  0  0  0  0  0  0
  1  2  1  0  0  0  0
  2  3  1  0  0  0  0
  3  4  2  0  0  0  0
  3  5  1  0  0  0  0
  5  6  2  0  0  0  0
  6  7  1  0  0  0  0
  7  8  2  0  0  0  0
  8  9  1  0  0  0  0
  8 10  1  0  0  0  0
 10 11  2  0  0  0  0
 11 12  1  0  0  0  0
 11  5  1  0  0  0  0
  1 13  1  0  0  0  0
  1 14  1  0  0  0  0
  1 15  1  0  0  0  0
  6 16  1  0  0  0  0
  7 17  1  0  0  0  0
 10 18  1  0  0  0  0
 12 19  1  0  0  0  0
 12 20  1  0  0  0  0
M  END
> <BIOSOLVEIT.HYDE_ESTIMATED_AFFINITY_LOWER_BOUNDARY [nM]>
354.401320

> <BIOSOLVEIT.HYDE_ESTIMATED_AFFINITY_UPPER_BOUNDARY [nM]>
35211.866563

> <BIOSOLVEIT.HYDE_LIGAND_EFFICIENCY range: ++, +, 0, -, -->
++

> <BIOSOLVEIT.HYDE_LIGAND_LIPOPHILIC_EFFICIENCY range: ++, +, 0, -, -->
0

> <BIOSOLVEIT.INTER_CLASH range: red, yellow, green>
green

> <BIOSOLVEIT.INTRA_CLASH range: red, yellow, green>
green

> <BIOSOLVEIT.LOGP>
1.7088

> <BIOSOLVEIT.MOLECULAR WEIGHT>
185.609

> <BIOSOLVEIT.MOLECULE_CHECKSUM>
LTMxLjExOTU7Mi41OTMyOQ==

> <BIOSOLVEIT.TORSION_QUALITY range: red, yellow, green, not rotatable>
green

> <BIOSOLVEIT.TPSA>
52.32

$$$$
3MS9_MS9_2
foHydescor03222115283D 1   1.00000     0.00000     0
Hydescorer 1.1.0 fol007
 20 20  0  0  0  0            999 V2000
   22.2497   45.8400   56.2794 C   0  0  0  0  0  0  0  0  0  0  0  0
   21.3772   45.0779   55.4541 O   0  0  0  0  0  0  0  0  0  0  0  0
   21.8179   43.9921   54.6896 C   0  0  0  0  0  0  0  0  0  0  0  0
   23.0296   43.6431   54.7279 O   0  0  0  0  0  0  0  0  0  0  0  0
   20.8607   43.2379   53.9035 C   0  0  0  0  0  0  0  0  0  0  0  0
   21.2381   42.7966   52.6391 C   0  0  0  0  0  0  0  0  0  0  0  0
   20.3433   42.0703   51.8598 C   0  0  0  0  0  0  0  0  0  0  0  0
   19.0736   41.7919   52.3558 C   0  0  0  0  0  0  0  0  0  0  0  0
   17.9243   40.8632   51.3628 Cl  0  0  0  0  0  0  0  0  0  0  0  0
   18.6896   42.2303   53.6190 C   0  0  0  0  0  0  0  0  0  0  0  0
   19.5890   42.9559   54.3939 C   0  0  0  0  0  0  0  0  0  0  0  0
   19.1851   43.3886   55.6629 N   0  0  0  0  0  0  0  0  0  0  0  0
   21.7307   46.5639   56.7342 H   0  0  0  0  0  0  0  0  0  0  0  0
   22.6630   45.2437   56.9676 H   0  0  0  0  0  0  0  0  0  0  0  0
   22.9686   46.2482   55.7170 H   0  0  0  0  0  0  0  0  0  0  0  0
   22.1527   43.0015   52.2905 H   0  0  0  0  0  0  0  0  0  0  0  0
   20.6105   41.7511   50.9506 H   0  0  0  0  0  0  0  0  0  0  0  0
   17.7748   42.0255   53.9673 H   0  0  0  0  0  0  0  0  0  0  0  0
   19.3574   44.3315   55.9480 H   0  0  0  0  0  0  0  0  0  0  0  0
   18.7241   42.7548   56.2840 H   0  0  0  0  0  0  0  0  0  0  0  0
  1  2  1  0  0  0  0
  2  3  1  0  0  0  0
  3  4  2  0  0  0  0
  3  5  1  0  0  0  0
  5  6  2  0  0  0  0
  6  7  1  0  0  0  0
  7  8  2  0  0  0  0
  8  9  1  0  0  0  0
  8 10  1  0  0  0  0
 10 11  2  0  0  0  0
 11 12  1  0  0  0  0
 11  5  1  0  0  0  0
  1 13  1  0  0  0  0
  1 14  1  0  0  0  0
  1 15  1  0  0  0  0
  6 16  1  0  0  0  0
  7 17  1  0  0  0  0
 10 18  1  0  0  0  0
 12 19  1  0  0  0  0
 12 20  1  0  0  0  0
M  END
> <BIOSOLVEIT.HYDE_ESTIMATED_AFFINITY_LOWER_BOUNDARY [nM]>
354.583663

> <BIOSOLVEIT.HYDE_ESTIMATED_AFFINITY_UPPER_BOUNDARY [nM]>
35229.983428

> <BIOSOLVEIT.HYDE_LIGAND_EFFICIENCY range: ++, +, 0, -, -->
++

> <BIOSOLVEIT.HYDE_LIGAND_LIPOPHILIC_EFFICIENCY range: ++, +, 0, -, -->
0

> <BIOSOLVEIT.INTER_CLASH range: red, yellow, green>
green

> <BIOSOLVEIT.INTRA_CLASH range: red, yellow, green>
green

> <BIOSOLVEIT.LOGP>
1.7088

> <BIOSOLVEIT.MOLECULAR WEIGHT>
185.609

> <BIOSOLVEIT.MOLECULE_CHECKSUM>
LTMxLjExODM7Mi41OTMxOQ==

> <BIOSOLVEIT.TORSION_QUALITY range: red, yellow, green, not rotatable>
green

> <BIOSOLVEIT.TPSA>
52.32

$$$$
3MS9_MS9_3
foHydescor03222115283D 1   1.00000     0.00000     0
Hydescorer 1.1.0 fol007
 20 20  0  0  0  0            999 V2000
   23.9291   44.1916   55.7681 C   0  0  0  0  0  0  0  0  0  0  0  0
   22.9921   43.5147   54.9393 O   0  0  0  0  0  0  0  0  0  0  0  0
   21.6198   43.7863   54.9729 C   0  0  0  0  0  0  0  0  0  0  0  0
   21.1687   44.6632   55.7597 O   0  0  0  0  0  0  0  0  0  0  0  0
   20.7335   43.0962   54.0558 C   0  0  0  0  0  0  0  0  0  0  0  0
   21.2617   42.5937   52.8708 C   0  0  0  0  0  0  0  0  0  0  0  0
   20.4382   41.9263   51.9698 C   0  0  0  0  0  0  0  0  0  0  0  0
   19.0878   41.7679   52.2648 C   0  0  0  0  0  0  0  0  0  0  0  0
   18.0292   40.9150   51.1154 Cl  0  0  0  0  0  0  0  0  0  0  0  0
   18.5531   42.2681   53.4477 C   0  0  0  0  0  0  0  0  0  0  0  0
   19.3817   42.9344   54.3451 C   0  0  0  0  0  0  0  0  0  0  0  0
   18.8259   43.4307   55.5306 N   0  0  0  0  0  0  0  0  0  0  0  0
   24.8488   43.8453   55.5833 H   0  0  0  0  0  0  0  0  0  0  0  0
   23.8972   45.1724   55.5752 H   0  0  0  0  0  0  0  0  0  0  0  0
   23.7000   44.0332   56.7285 H   0  0  0  0  0  0  0  0  0  0  0  0
   22.2334   42.7122   52.6667 H   0  0  0  0  0  0  0  0  0  0  0  0
   20.8138   41.5633   51.1170 H   0  0  0  0  0  0  0  0  0  0  0  0
   17.5812   42.1497   53.6514 H   0  0  0  0  0  0  0  0  0  0  0  0
   19.2587   44.1989   56.0025 H   0  0  0  0  0  0  0  0  0  0  0  0
   17.9962   43.0171   55.9054 H   0  0  0  0  0  0  0  0  0  0  0  0
  1  2  1  0  0  0  0
  2  3  1  0  0  0  0
  3  4  2  0  0  0  0
  3  5  1  0  0  0  0
  5  6  2  0  0  0  0
  6  7  1  0  0  0  0
  7  8  2  0  0  0  0
  8  9  1  0  0  0  0
  8 10  1  0  0  0  0
 10 11  2  0  0  0  0
 11 12  1  0  0  0  0
 11  5  1  0  0  0  0
  1 13  1  0  0  0  0
  1 14  1  0  0  0  0
  1 15  1  0  0  0  0
  6 16  1  0  0  0  0
  7 17  1  0  0  0  0
 10 18  1  0  0  0  0
 12 19  1  0  0  0  0
 12 20  1  0  0  0  0
M  END
> <BIOSOLVEIT.HYDE_ESTIMATED_AFFINITY_LOWER_BOUNDARY [nM]>
18618.996596

> <BIOSOLVEIT.HYDE_ESTIMATED_AFFINITY_UPPER_BOUNDARY [nM]>
1849907.396005

> <BIOSOLVEIT.HYDE_LIGAND_EFFICIENCY range: ++, +, 0, -, -->
+

> <BIOSOLVEIT.HYDE_LIGAND_LIPOPHILIC_EFFICIENCY range: ++, +, 0, -, -->
-

> <BIOSOLVEIT.INTER_CLASH range: red, yellow, green>
green

> <BIOSOLVEIT.INTRA_CLASH range: red, yellow, green>
green

> <BIOSOLVEIT.LOGP>
1.7088

> <BIOSOLVEIT.MOLECULAR WEIGHT>
185.609

> <BIOSOLVEIT.MOLECULE_CHECKSUM>
LTIxLjI5OTE7MS43NzQ5Mw==

> <BIOSOLVEIT.TORSION_QUALITY range: red, yellow, green, not rotatable>
green

> <BIOSOLVEIT.TPSA>
52.32

$$$$
3K5V_STJ_1
foHydescor03222115283D 1   1.00000     0.00000     0
Hydescorer 1.1.0 fol007
 40 42  0  0  0  0            999 V2000
   28.5486   43.2621   53.3058 N   0  0  0  0  0  0  0  0  0  0  0  0
   27.3182   43.9294   53.0118 C   0  0  0  0  0  0  0  0  0  0  0  0
   26.6184   43.5174   52.0470 O   0  0  0  0  0  0  0  0  0  0  0  0
   26.8444   45.0767   53.8243 C   0  0  0  0  0  0  0  0  0  0  0  0
   27.5541   46.2731   53.8124 C   0  0  0  0  0  0  0  0  0  0  0  0
   27.0947   47.3381   54.5807 C   0  0  0  0  0  0  0  0  0  0  0  0
   25.9442   47.2199   55.3533 C   0  0  0  0  0  0  0  0  0  0  0  0
   25.2498   46.0142   55.3499 C   0  0  0  0  0  0  0  0  0  0  0  0
   24.0484   45.8797   56.1516 C   0  0  0  0  0  0  0  0  0  0  0  0
   23.2393   44.7619   55.9765 C   0  0  0  0  0  0  0  0  0  0  0  0
   22.0894   44.6430   56.7503 C   0  0  0  0  0  0  0  0  0  0  0  0
   21.2669   43.5219   56.5816 N   0  0  0  0  0  0  0  0  0  0  0  0
   20.7301   43.1009   55.3161 C   0  0  0  0  0  0  0  0  0  0  0  0
   21.5619   42.4814   54.3888 C   0  0  0  0  0  0  0  0  0  0  0  0
   21.0512   42.0703   53.1614 C   0  0  0  0  0  0  0  0  0  0  0  0
   19.7068   42.2877   52.8784 C   0  0  0  0  0  0  0  0  0  0  0  0
   19.1993   41.8947   51.6913 O   0  0  0  0  0  0  0  0  0  0  0  0
   18.3493   40.7672   51.4915 C   0  0  0  0  0  0  0  0  0  0  0  0
   17.1883   40.9083   52.2303 F   0  0  0  0  0  0  0  0  0  0  0  0
   18.0182   40.6875   50.1528 F   0  0  0  0  0  0  0  0  0  0  0  0
   19.0041   39.6054   51.8588 F   0  0  0  0  0  0  0  0  0  0  0  0
   18.8675   42.9073   53.7996 C   0  0  0  0  0  0  0  0  0  0  0  0
   19.3864   43.3144   55.0242 C   0  0  0  0  0  0  0  0  0  0  0  0
   21.7968   45.6052   57.6385 N   0  0  0  0  0  0  0  0  0  0  0  0
   22.5871   46.6776   57.7965 C   0  0  0  0  0  0  0  0  0  0  0  0
   23.6990   46.8058   57.0570 N   0  0  0  0  0  0  0  0  0  0  0  0
   25.6912   44.9362   54.5892 C   0  0  0  0  0  0  0  0  0  0  0  0
   28.5545   42.4705   53.9168 H   0  0  0  0  0  0  0  0  0  0  0  0
   29.4029   43.5871   52.9003 H   0  0  0  0  0  0  0  0  0  0  0  0
   28.3824   46.3662   53.2598 H   0  0  0  0  0  0  0  0  0  0  0  0
   27.5992   48.2016   54.5774 H   0  0  0  0  0  0  0  0  0  0  0  0
   25.6209   47.9900   55.9031 H   0  0  0  0  0  0  0  0  0  0  0  0
   23.4795   44.0581   55.3079 H   0  0  0  0  0  0  0  0  0  0  0  0
   21.0390   42.9810   57.3913 H   0  0  0  0  0  0  0  0  0  0  0  0
   22.5268   42.3314   54.6043 H   0  0  0  0  0  0  0  0  0  0  0  0
   21.6437   41.6239   52.4908 H   0  0  0  0  0  0  0  0  0  0  0  0
   17.9027   43.0580   53.5836 H   0  0  0  0  0  0  0  0  0  0  0  0
   18.7938   43.7605   55.6949 H   0  0  0  0  0  0  0  0  0  0  0  0
   22.3474   47.3813   58.4653 H   0  0  0  0  0  0  0  0  0  0  0  0
   25.1866   44.0728   54.5923 H   0  0  0  0  0  0  0  0  0  0  0  0
  1  2  1  0  0  0  0
  2  3  2  0  0  0  0
  2  4  1  0  0  0  0
  4  5  2  0  0  0  0
  5  6  1  0  0  0  0
  6  7  2  0  0  0  0
  7  8  1  0  0  0  0
  8  9  1  0  0  0  0
  9 10  2  0  0  0  0
 10 11  1  0  0  0  0
 11 12  1  0  0  0  0
 12 13  1  0  0  0  0
 13 14  2  0  0  0  0
 14 15  1  0  0  0  0
 15 16  2  0  0  0  0
 16 17  1  0  0  0  0
 17 18  1  0  0  0  0
 18 19  1  0  0  0  0
 18 20  1  0  0  0  0
 18 21  1  0  0  0  0
 16 22  1  0  0  0  0
 22 23  2  0  0  0  0
 11 24  2  0  0  0  0
 24 25  1  0  0  0  0
 25 26  2  0  0  0  0
  8 27  2  0  0  0  0
 27  4  1  0  0  0  0
 26  9  1  0  0  0  0
 23 13  1  0  0  0  0
  1 28  1  0  0  0  0
  1 29  1  0  0  0  0
  5 30  1  0  0  0  0
  6 31  1  0  0  0  0
  7 32  1  0  0  0  0
 10 33  1  0  0  0  0
 12 34  1  0  0  0  0
 14 35  1  0  0  0  0
 15 36  1  0  0  0  0
 22 37  1  0  0  0  0
 23 38  1  0  0  0  0
 25 39  1  0  0  0  0
 27 40  1  0  0  0  0
M  END
> <BIOSOLVEIT.HYDE_ESTIMATED_AFFINITY_LOWER_BOUNDARY [nM]>
1690.329539

> <BIOSOLVEIT.HYDE_ESTIMATED_AFFINITY_UPPER_BOUNDARY [nM]>
167944.233743

> <BIOSOLVEIT.HYDE_LIGAND_EFFICIENCY range: ++, +, 0, -, -->
-

> <BIOSOLVEIT.HYDE_LIGAND_LIPOPHILIC_EFFICIENCY range: ++, +, 0, -, -->
--

> <BIOSOLVEIT.INTER_CLASH range: red, yellow, green>
green

> <BIOSOLVEIT.INTRA_CLASH range: red, yellow, green>
green

> <BIOSOLVEIT.LOGP>
3.8847

> <BIOSOLVEIT.MOLECULAR WEIGHT>
374.321

> <BIOSOLVEIT.MOLECULE_CHECKSUM>
LTI3LjI0Njg7MS4wMDkxNA==

> <BIOSOLVEIT.TORSION_QUALITY range: red, yellow, green, not rotatable>
red

> <BIOSOLVEIT.TPSA>
90.13

$$$$
3K5V_STJ_2
foHydescor03222115283D 1   1.00000     0.00000     0
Hydescorer 1.1.0 fol007
 40 42  0  0  0  0            999 V2000
   25.2043   47.4840   50.4837 N   0  0  0  0  0  0  0  0  0  0  0  0
   25.7342   46.2108   50.8628 C   0  0  0  0  0  0  0  0  0  0  0  0
   25.8775   45.3239   49.9779 O   0  0  0  0  0  0  0  0  0  0  0  0
   26.1317   45.9215   52.2625 C   0  0  0  0  0  0  0  0  0  0  0  0
   27.4586   46.0747   52.6510 C   0  0  0  0  0  0  0  0  0  0  0  0
   27.8126   45.7987   53.9679 C   0  0  0  0  0  0  0  0  0  0  0  0
   26.8624   45.3750   54.8910 C   0  0  0  0  0  0  0  0  0  0  0  0
   25.5408   45.2289   54.4807 C   0  0  0  0  0  0  0  0  0  0  0  0
   24.5414   44.7881   55.4351 C   0  0  0  0  0  0  0  0  0  0  0  0
   23.2046   44.7608   55.0514 C   0  0  0  0  0  0  0  0  0  0  0  0
   22.2544   44.3365   55.9745 C   0  0  0  0  0  0  0  0  0  0  0  0
   20.9052   44.3058   55.5991 N   0  0  0  0  0  0  0  0  0  0  0  0
   20.3902   43.5180   54.5124 C   0  0  0  0  0  0  0  0  0  0  0  0
   19.0634   43.0996   54.5355 C   0  0  0  0  0  0  0  0  0  0  0  0
   18.5563   42.3368   53.4878 C   0  0  0  0  0  0  0  0  0  0  0  0
   19.3902   42.0018   52.4263 C   0  0  0  0  0  0  0  0  0  0  0  0
   18.9107   41.2619   51.4046 O   0  0  0  0  0  0  0  0  0  0  0  0
   18.0515   40.1317   51.5381 C   0  0  0  0  0  0  0  0  0  0  0  0
   16.8723   40.4999   52.1610 F   0  0  0  0  0  0  0  0  0  0  0  0
   17.7565   39.6420   50.2807 F   0  0  0  0  0  0  0  0  0  0  0  0
   18.6800   39.1384   52.2674 F   0  0  0  0  0  0  0  0  0  0  0  0
   20.7186   42.4154   52.3950 C   0  0  0  0  0  0  0  0  0  0  0  0
   21.2171   43.1777   53.4463 C   0  0  0  0  0  0  0  0  0  0  0  0
   22.6536   43.9677   57.2013 N   0  0  0  0  0  0  0  0  0  0  0  0
   23.9468   43.9992   57.5569 C   0  0  0  0  0  0  0  0  0  0  0  0
   24.8743   44.4063   56.6773 N   0  0  0  0  0  0  0  0  0  0  0  0
   25.1647   45.4994   53.1689 C   0  0  0  0  0  0  0  0  0  0  0  0
   25.1856   48.2346   51.1442 H   0  0  0  0  0  0  0  0  0  0  0  0
   24.8526   47.6237   49.5580 H   0  0  0  0  0  0  0  0  0  0  0  0
   28.1479   46.3786   51.9934 H   0  0  0  0  0  0  0  0  0  0  0  0
   28.7644   45.9066   54.2550 H   0  0  0  0  0  0  0  0  0  0  0  0
   27.1251   45.1782   55.8356 H   0  0  0  0  0  0  0  0  0  0  0  0
   22.9322   45.0404   54.1308 H   0  0  0  0  0  0  0  0  0  0  0  0
   20.2606   44.8664   56.1190 H   0  0  0  0  0  0  0  0  0  0  0  0
   18.4743   43.3469   55.3048 H   0  0  0  0  0  0  0  0  0  0  0  0
   17.6035   42.0332   53.4981 H   0  0  0  0  0  0  0  0  0  0  0  0
   21.3078   42.1676   51.6260 H   0  0  0  0  0  0  0  0  0  0  0  0
   22.1699   43.4812   53.4359 H   0  0  0  0  0  0  0  0  0  0  0  0
   24.2193   43.7193   58.4774 H   0  0  0  0  0  0  0  0  0  0  0  0
   24.2130   45.3918   52.8817 H   0  0  0  0  0  0  0  0  0  0  0  0
  1  2  1  0  0  0  0
  2  3  2  0  0  0  0
  2  4  1  0  0  0  0
  4  5  2  0  0  0  0
  5  6  1  0  0  0  0
  6  7  2  0  0  0  0
  7  8  1  0  0  0  0
  8  9  1  0  0  0  0
  9 10  2  0  0  0  0
 10 11  1  0  0  0  0
 11 12  1  0  0  0  0
 12 13  1  0  0  0  0
 13 14  2  0  0  0  0
 14 15  1  0  0  0  0
 15 16  2  0  0  0  0
 16 17  1  0  0  0  0
 17 18  1  0  0  0  0
 18 19  1  0  0  0  0
 18 20  1  0  0  0  0
 18 21  1  0  0  0  0
 16 22  1  0  0  0  0
 22 23  2  0  0  0  0
 11 24  2  0  0  0  0
 24 25  1  0  0  0  0
 25 26  2  0  0  0  0
  8 27  2  0  0  0  0
 27  4  1  0  0  0  0
 26  9  1  0  0  0  0
 23 13  1  0  0  0  0
  1 28  1  0  0  0  0
  1 29  1  0  0  0  0
  5 30  1  0  0  0  0
  6 31  1  0  0  0  0
  7 32  1  0  0  0  0
 10 33  1  0  0  0  0
 12 34  1  0  0  0  0
 14 35  1  0  0  0  0
 15 36  1  0  0  0  0
 22 37  1  0  0  0  0
 23 38  1  0  0  0  0
 25 39  1  0  0  0  0
 27 40  1  0  0  0  0
M  END
> <BIOSOLVEIT.HYDE_ESTIMATED_AFFINITY_LOWER_BOUNDARY [nM]>
807.893265

> <BIOSOLVEIT.HYDE_ESTIMATED_AFFINITY_UPPER_BOUNDARY [nM]>
80268.972568

> <BIOSOLVEIT.HYDE_LIGAND_EFFICIENCY range: ++, +, 0, -, -->
-

> <BIOSOLVEIT.HYDE_LIGAND_LIPOPHILIC_EFFICIENCY range: ++, +, 0, -, -->
--

> <BIOSOLVEIT.INTER_CLASH range: red, yellow, green>
green

> <BIOSOLVEIT.INTRA_CLASH range: red, yellow, green>
yellow

> <BIOSOLVEIT.LOGP>
3.8847

> <BIOSOLVEIT.MOLECULAR WEIGHT>
374.321

> <BIOSOLVEIT.MOLECULE_CHECKSUM>
LTI5LjA3Njk7MS4wNzY5Mg==

> <BIOSOLVEIT.TORSION_QUALITY range: red, yellow, green, not rotatable>
red

> <BIOSOLVEIT.TPSA>
90.13

$$$$
3K5V_STJ_3
foHydescor03222115283D 1   1.00000     0.00000     0
Hydescorer 1.1.0 fol007
 40 42  0  0  0  0            999 V2000
   26.5792   46.1238   51.5012 N   0  0  0  0  0  0  0  0  0  0  0  0
   26.5339   44.7764   51.9787 C   0  0  0  0  0  0  0  0  0  0  0  0
   26.4599   43.8365   51.1412 O   0  0  0  0  0  0  0  0  0  0  0  0
   26.5892   44.4646   53.4280 C   0  0  0  0  0  0  0  0  0  0  0  0
   27.8200   44.2850   54.0509 C   0  0  0  0  0  0  0  0  0  0  0  0
   27.8523   43.9932   55.4108 C   0  0  0  0  0  0  0  0  0  0  0  0
   26.6774   43.8801   56.1468 C   0  0  0  0  0  0  0  0  0  0  0  0
   25.4575   44.0641   55.5035 C   0  0  0  0  0  0  0  0  0  0  0  0
   24.2260   43.9488   56.2615 C   0  0  0  0  0  0  0  0  0  0  0  0
   23.0092   44.0594   55.5967 C   0  0  0  0  0  0  0  0  0  0  0  0
   21.8343   43.9476   56.3332 C   0  0  0  0  0  0  0  0  0  0  0  0
   20.6032   44.0581   55.6740 N   0  0  0  0  0  0  0  0  0  0  0  0
   20.2095   43.2366   54.5619 C   0  0  0  0  0  0  0  0  0  0  0  0
   21.1753   42.7739   53.6736 C   0  0  0  0  0  0  0  0  0  0  0  0
   20.8036   41.9781   52.5943 C   0  0  0  0  0  0  0  0  0  0  0  0
   19.4620   41.6557   52.4188 C   0  0  0  0  0  0  0  0  0  0  0  0
   19.0884   40.8854   51.3757 O   0  0  0  0  0  0  0  0  0  0  0  0
   18.3161   39.6902   51.4691 C   0  0  0  0  0  0  0  0  0  0  0  0
   17.0850   39.9612   52.0390 F   0  0  0  0  0  0  0  0  0  0  0  0
   18.1171   39.1849   50.1990 F   0  0  0  0  0  0  0  0  0  0  0  0
   18.9882   38.7460   52.2244 F   0  0  0  0  0  0  0  0  0  0  0  0
   18.4890   42.1145   53.3018 C   0  0  0  0  0  0  0  0  0  0  0  0
   18.8696   42.9092   54.3782 C   0  0  0  0  0  0  0  0  0  0  0  0
   21.9095   43.7370   57.6562 N   0  0  0  0  0  0  0  0  0  0  0  0
   23.0907   43.6324   58.2836 C   0  0  0  0  0  0  0  0  0  0  0  0
   24.2319   43.7384   57.5864 N   0  0  0  0  0  0  0  0  0  0  0  0
   25.4020   44.3565   54.1447 C   0  0  0  0  0  0  0  0  0  0  0  0
   26.4638   46.8847   52.1398 H   0  0  0  0  0  0  0  0  0  0  0  0
   26.7261   46.3050   50.5288 H   0  0  0  0  0  0  0  0  0  0  0  0
   28.6692   44.3645   53.5288 H   0  0  0  0  0  0  0  0  0  0  0  0
   28.7331   43.8628   55.8659 H   0  0  0  0  0  0  0  0  0  0  0  0
   26.7092   43.6698   57.1239 H   0  0  0  0  0  0  0  0  0  0  0  0
   22.9795   44.2160   54.6095 H   0  0  0  0  0  0  0  0  0  0  0  0
   19.9586   44.7510   55.9970 H   0  0  0  0  0  0  0  0  0  0  0  0
   22.1365   43.0133   53.8108 H   0  0  0  0  0  0  0  0  0  0  0  0
   21.4928   41.6419   51.9525 H   0  0  0  0  0  0  0  0  0  0  0  0
   17.5277   41.8756   53.1642 H   0  0  0  0  0  0  0  0  0  0  0  0
   18.1803   43.2453   55.0200 H   0  0  0  0  0  0  0  0  0  0  0  0
   23.1204   43.4754   59.2708 H   0  0  0  0  0  0  0  0  0  0  0  0
   24.5212   44.4870   53.6895 H   0  0  0  0  0  0  0  0  0  0  0  0
  1  2  1  0  0  0  0
  2  3  2  0  0  0  0
  2  4  1  0  0  0  0
  4  5  2  0  0  0  0
  5  6  1  0  0  0  0
  6  7  2  0  0  0  0
  7  8  1  0  0  0  0
  8  9  1  0  0  0  0
  9 10  2  0  0  0  0
 10 11  1  0  0  0  0
 11 12  1  0  0  0  0
 12 13  1  0  0  0  0
 13 14  2  0  0  0  0
 14 15  1  0  0  0  0
 15 16  2  0  0  0  0
 16 17  1  0  0  0  0
 17 18  1  0  0  0  0
 18 19  1  0  0  0  0
 18 20  1  0  0  0  0
 18 21  1  0  0  0  0
 16 22  1  0  0  0  0
 22 23  2  0  0  0  0
 11 24  2  0  0  0  0
 24 25  1  0  0  0  0
 25 26  2  0  0  0  0
  8 27  2  0  0  0  0
 27  4  1  0  0  0  0
 26  9  1  0  0  0  0
 23 13  1  0  0  0  0
  1 28  1  0  0  0  0
  1 29  1  0  0  0  0
  5 30  1  0  0  0  0
  6 31  1  0  0  0  0
  7 32  1  0  0  0  0
 10 33  1  0  0  0  0
 12 34  1  0  0  0  0
 14 35  1  0  0  0  0
 15 36  1  0  0  0  0
 22 37  1  0  0  0  0
 23 38  1  0  0  0  0
 25 39  1  0  0  0  0
 27 40  1  0  0  0  0
M  END
> <BIOSOLVEIT.HYDE_ESTIMATED_AFFINITY_LOWER_BOUNDARY [nM]>
42.740537

> <BIOSOLVEIT.HYDE_ESTIMATED_AFFINITY_UPPER_BOUNDARY [nM]>
4246.525078

> <BIOSOLVEIT.HYDE_LIGAND_EFFICIENCY range: ++, +, 0, -, -->
0

> <BIOSOLVEIT.HYDE_LIGAND_LIPOPHILIC_EFFICIENCY range: ++, +, 0, -, -->
-

> <BIOSOLVEIT.INTER_CLASH range: red, yellow, green>
green

> <BIOSOLVEIT.INTRA_CLASH range: red, yellow, green>
yellow

> <BIOSOLVEIT.LOGP>
3.8847

> <BIOSOLVEIT.MOLECULAR WEIGHT>
374.321

> <BIOSOLVEIT.MOLECULE_CHECKSUM>
LTM2LjM2MzI7MS4zNDY3OQ==

> <BIOSOLVEIT.TORSION_QUALITY range: red, yellow, green, not rotatable>
red

> <BIOSOLVEIT.TPSA>
90.13

$$$$
3K5V_STI_1
foHydescor03222115283D 1   1.00000     0.00000     0
Hydescorer 1.1.0 fol007
 70 74  0  0  0  0            999 V2000
   23.6832   47.0526   61.1897 C   0  0  0  0  0  0  0  0  0  0  0  0
   23.3143   46.2377   59.9607 C   0  0  0  0  0  0  0  0  0  0  0  0
   23.2011   46.8879   58.7363 C   0  0  0  0  0  0  0  0  0  0  0  0
   22.8650   46.1673   57.5946 C   0  0  0  0  0  0  0  0  0  0  0  0
   22.6454   44.7972   57.6928 C   0  0  0  0  0  0  0  0  0  0  0  0
   22.3066   44.0628   56.5501 N   0  0  0  0  0  0  0  0  0  0  0  0
   21.6508   44.6294   55.4030 C   0  0  0  0  0  0  0  0  0  0  0  0
   21.8409   45.8419   55.1105 O   0  0  0  0  0  0  0  0  0  0  0  0
   20.7924   43.7939   54.5284 C   0  0  0  0  0  0  0  0  0  0  0  0
   21.2761   43.3816   53.2908 C   0  0  0  0  0  0  0  0  0  0  0  0
   20.4830   42.5965   52.4600 C   0  0  0  0  0  0  0  0  0  0  0  0
   19.2083   42.2340   52.8851 C   0  0  0  0  0  0  0  0  0  0  0  0
   18.3301   41.3771   51.9874 C   0  0  0  0  0  0  0  0  0  0  0  0
   18.6878   39.9405   52.0676 N   0  3  0  0  0  0  0  0  0  0  0  0
   17.4505   39.1452   52.0292 C   0  0  0  0  0  0  0  0  0  0  0  0
   17.7050   37.7790   51.4093 C   0  0  0  0  0  0  0  0  0  0  0  0
   18.0552   37.9079   49.9870 N   0  3  0  0  0  0  0  0  0  0  0  0
   16.8598   37.9206   49.1303 C   0  0  0  0  0  0  0  0  0  0  0  0
   18.8171   39.1395   49.7317 C   0  0  0  0  0  0  0  0  0  0  0  0
   19.5929   39.5424   50.9769 C   0  0  0  0  0  0  0  0  0  0  0  0
   18.7205   42.6441   54.1214 C   0  0  0  0  0  0  0  0  0  0  0  0
   19.5177   43.4293   54.9487 C   0  0  0  0  0  0  0  0  0  0  0  0
   22.7568   44.1399   58.9138 C   0  0  0  0  0  0  0  0  0  0  0  0
   23.0929   44.8670   60.0514 C   0  0  0  0  0  0  0  0  0  0  0  0
   23.2117   44.2036   61.3176 N   0  0  0  0  0  0  0  0  0  0  0  0
   22.1971   43.3863   61.8321 C   0  0  0  0  0  0  0  0  0  0  0  0
   22.5371   42.2662   62.4868 N   0  0  0  0  0  0  0  0  0  0  0  0
   21.6085   41.4461   63.0001 C   0  0  0  0  0  0  0  0  0  0  0  0
   20.2610   41.7591   62.8536 C   0  0  0  0  0  0  0  0  0  0  0  0
   19.9182   42.9224   62.1732 C   0  0  0  0  0  0  0  0  0  0  0  0
   18.5139   43.2563   62.0155 C   0  0  0  0  0  0  0  0  0  0  0  0
   17.5790   42.7105   62.8888 C   0  0  0  0  0  0  0  0  0  0  0  0
   16.2354   43.0334   62.7351 C   0  0  0  0  0  0  0  0  0  0  0  0
   15.8688   43.8962   61.7077 C   0  0  0  0  0  0  0  0  0  0  0  0
   16.7890   44.4098   60.8779 N   0  0  0  0  0  0  0  0  0  0  0  0
   18.0914   44.1141   61.0053 C   0  0  0  0  0  0  0  0  0  0  0  0
   20.8995   43.6983   61.6844 N   0  0  0  0  0  0  0  0  0  0  0  0
   23.7261   46.4515   61.9877 H   0  0  0  0  0  0  0  0  0  0  0  0
   24.5745   47.4835   61.0486 H   0  0  0  0  0  0  0  0  0  0  0  0
   22.9917   47.7589   61.3412 H   0  0  0  0  0  0  0  0  0  0  0  0
   23.3612   47.8732   58.6765 H   0  0  0  0  0  0  0  0  0  0  0  0
   22.7822   46.6298   56.7118 H   0  0  0  0  0  0  0  0  0  0  0  0
   22.5335   43.0891   56.5307 H   0  0  0  0  0  0  0  0  0  0  0  0
   22.1941   43.6496   52.9983 H   0  0  0  0  0  0  0  0  0  0  0  0
   20.8243   42.2966   51.5691 H   0  0  0  0  0  0  0  0  0  0  0  0
   18.4380   41.6843   51.0419 H   0  0  0  0  0  0  0  0  0  0  0  0
   17.3766   41.4885   52.2674 H   0  0  0  0  0  0  0  0  0  0  0  0
   19.1470   39.7742   52.9403 H   0  0  0  0  0  0  0  0  0  0  0  0
   16.7660   39.6299   51.4846 H   0  0  0  0  0  0  0  0  0  0  0  0
   17.1098   39.0237   52.9616 H   0  0  0  0  0  0  0  0  0  0  0  0
   16.8793   37.2215   51.4943 H   0  0  0  0  0  0  0  0  0  0  0  0
   18.4587   37.3346   51.8934 H   0  0  0  0  0  0  0  0  0  0  0  0
   18.6219   37.1256   49.7282 H   0  0  0  0  0  0  0  0  0  0  0  0
   17.1363   38.0092   48.1735 H   0  0  0  0  0  0  0  0  0  0  0  0
   16.3525   37.0676   49.2531 H   0  0  0  0  0  0  0  0  0  0  0  0
   16.2776   38.6937   49.3820 H   0  0  0  0  0  0  0  0  0  0  0  0
   18.1852   39.8738   49.4837 H   0  0  0  0  0  0  0  0  0  0  0  0
   19.4572   38.9825   48.9796 H   0  0  0  0  0  0  0  0  0  0  0  0
   20.1909   40.3120   50.7529 H   0  0  0  0  0  0  0  0  0  0  0  0
   20.1468   38.7671   51.2803 H   0  0  0  0  0  0  0  0  0  0  0  0
   17.8025   42.3764   54.4140 H   0  0  0  0  0  0  0  0  0  0  0  0
   19.1764   43.7294   55.8394 H   0  0  0  0  0  0  0  0  0  0  0  0
   22.5967   43.1546   58.9734 H   0  0  0  0  0  0  0  0  0  0  0  0
   24.0478   44.3290   61.8516 H   0  0  0  0  0  0  0  0  0  0  0  0
   21.8827   40.6155   63.4848 H   0  0  0  0  0  0  0  0  0  0  0  0
   19.5538   41.1603   63.2296 H   0  0  0  0  0  0  0  0  0  0  0  0
   17.8701   42.0927   63.6192 H   0  0  0  0  0  0  0  0  0  0  0  0
   15.5460   42.6527   63.3513 H   0  0  0  0  0  0  0  0  0  0  0  0
   14.9058   44.1369   61.5860 H   0  0  0  0  0  0  0  0  0  0  0  0
   18.7582   44.5102   60.3742 H   0  0  0  0  0  0  0  0  0  0  0  0
  1  2  1  0  0  0  0
  2  3  2  0  0  0  0
  3  4  1  0  0  0  0
  4  5  2  0  0  0  0
  5  6  1  0  0  0  0
  6  7  1  0  0  0  0
  7  8  2  0  0  0  0
  7  9  1  0  0  0  0
  9 10  2  0  0  0  0
 10 11  1  0  0  0  0
 11 12  2  0  0  0  0
 12 13  1  0  0  0  0
 13 14  1  0  0  0  0
 14 15  1  0  0  0  0
 15 16  1  0  0  0  0
 16 17  1  0  0  0  0
 17 18  1  0  0  0  0
 17 19  1  0  0  0  0
 19 20  1  0  0  0  0
 12 21  1  0  0  0  0
 21 22  2  0  0  0  0
  5 23  1  0  0  0  0
 23 24  2  0  0  0  0
 24 25  1  0  0  0  0
 25 26  1  0  0  0  0
 26 27  2  0  0  0  0
 27 28  1  0  0  0  0
 28 29  2  0  0  0  0
 29 30  1  0  0  0  0
 30 31  1  0  0  0  0
 31 32  2  0  0  0  0
 32 33  1  0  0  0  0
 33 34  2  0  0  0  0
 34 35  1  0  0  0  0
 35 36  2  0  0  0  0
 30 37  2  0  0  0  0
 24  2  1  0  0  0  0
 37 26  1  0  0  0  0
 22  9  1  0  0  0  0
 36 31  1  0  0  0  0
 20 14  1  0  0  0  0
  1 38  1  0  0  0  0
  1 39  1  0  0  0  0
  1 40  1  0  0  0  0
  3 41  1  0  0  0  0
  4 42  1  0  0  0  0
  6 43  1  0  0  0  0
 10 44  1  0  0  0  0
 11 45  1  0  0  0  0
 13 46  1  0  0  0  0
 13 47  1  0  0  0  0
 14 48  1  0  0  0  0
 15 49  1  0  0  0  0
 15 50  1  0  0  0  0
 16 51  1  0  0  0  0
 16 52  1  0  0  0  0
 17 53  1  0  0  0  0
 18 54  1  0  0  0  0
 18 55  1  0  0  0  0
 18 56  1  0  0  0  0
 19 57  1  0  0  0  0
 19 58  1  0  0  0  0
 20 59  1  0  0  0  0
 20 60  1  0  0  0  0
 21 61  1  0  0  0  0
 22 62  1  0  0  0  0
 23 63  1  0  0  0  0
 25 64  1  0  0  0  0
 28 65  1  0  0  0  0
 29 66  1  0  0  0  0
 32 67  1  0  0  0  0
 33 68  1  0  0  0  0
 34 69  1  0  0  0  0
 36 70  1  0  0  0  0
M  CHG  2  14   1  17   1
M  END
> <BIOSOLVEIT.HYDE_ESTIMATED_AFFINITY_LOWER_BOUNDARY [nM]>
11930.908771

> <BIOSOLVEIT.HYDE_ESTIMATED_AFFINITY_UPPER_BOUNDARY [nM]>
1185406.327543

> <BIOSOLVEIT.HYDE_LIGAND_EFFICIENCY range: ++, +, 0, -, -->
--

> <BIOSOLVEIT.HYDE_LIGAND_LIPOPHILIC_EFFICIENCY range: ++, +, 0, -, -->
-

> <BIOSOLVEIT.INTER_CLASH range: red, yellow, green>
green

> <BIOSOLVEIT.INTRA_CLASH range: red, yellow, green>
red

> <BIOSOLVEIT.LOGP>
1.75612

> <BIOSOLVEIT.MOLECULAR WEIGHT>
495.628

> <BIOSOLVEIT.MOLECULE_CHECKSUM>
LTIyLjQwMjQ7MC42MDU0Nw==

> <BIOSOLVEIT.TORSION_QUALITY range: red, yellow, green, not rotatable>
red

> <BIOSOLVEIT.TPSA>
88.68

$$$$
3K5V_STI_2
foHydescor03222115283D 1   1.00000     0.00000     0
Hydescorer 1.1.0 fol007
 70 74  0  0  0  0            999 V2000
   25.9674   48.4472   60.9257 C   0  0  0  0  0  0  0  0  0  0  0  0
   25.2619   47.4672   60.0025 C   0  0  0  0  0  0  0  0  0  0  0  0
   25.6604   46.1346   60.0111 C   0  0  0  0  0  0  0  0  0  0  0  0
   25.0322   45.2154   59.1769 C   0  0  0  0  0  0  0  0  0  0  0  0
   24.0070   45.6434   58.3399 C   0  0  0  0  0  0  0  0  0  0  0  0
   23.3509   44.7014   57.4733 N   0  0  0  0  0  0  0  0  0  0  0  0
   23.8322   44.3520   56.1644 C   0  0  0  0  0  0  0  0  0  0  0  0
   25.0707   44.3872   55.9244 O   0  0  0  0  0  0  0  0  0  0  0  0
   22.8964   43.9014   55.1056 C   0  0  0  0  0  0  0  0  0  0  0  0
   23.3376   42.9964   54.1452 C   0  0  0  0  0  0  0  0  0  0  0  0
   22.4709   42.5637   53.1467 C   0  0  0  0  0  0  0  0  0  0  0  0
   21.1661   43.0477   53.1257 C   0  0  0  0  0  0  0  0  0  0  0  0
   20.2082   42.5842   52.0399 C   0  0  0  0  0  0  0  0  0  0  0  0
   19.5391   41.3100   52.3959 N   0  3  0  0  0  0  0  0  0  0  0  0
   19.9867   40.2497   51.4814 C   0  0  0  0  0  0  0  0  0  0  0  0
   19.2041   38.9675   51.7270 C   0  0  0  0  0  0  0  0  0  0  0  0
   17.7497   39.1927   51.6649 N   0  3  0  0  0  0  0  0  0  0  0  0
   17.1272   38.3304   50.6494 C   0  0  0  0  0  0  0  0  0  0  0  0
   17.3693   40.5932   51.4207 C   0  0  0  0  0  0  0  0  0  0  0  0
   18.0802   41.5255   52.3869 C   0  0  0  0  0  0  0  0  0  0  0  0
   20.7208   43.9526   54.0835 C   0  0  0  0  0  0  0  0  0  0  0  0
   21.5916   44.3822   55.0802 C   0  0  0  0  0  0  0  0  0  0  0  0
   23.6028   46.9744   58.3255 C   0  0  0  0  0  0  0  0  0  0  0  0
   24.2357   47.8882   59.1623 C   0  0  0  0  0  0  0  0  0  0  0  0
   23.8399   49.2312   59.1594 N   0  0  0  0  0  0  0  0  0  0  0  0
   24.4638   50.2109   58.3207 C   0  0  0  0  0  0  0  0  0  0  0  0
   24.0446   51.4830   58.3884 N   0  0  0  0  0  0  0  0  0  0  0  0
   24.5918   52.4420   57.6270 C   0  0  0  0  0  0  0  0  0  0  0  0
   25.6174   52.1159   56.7457 C   0  0  0  0  0  0  0  0  0  0  0  0
   26.0452   50.7941   56.6823 C   0  0  0  0  0  0  0  0  0  0  0  0
   27.1151   50.4451   55.7649 C   0  0  0  0  0  0  0  0  0  0  0  0
   27.7728   51.4522   55.0665 C   0  0  0  0  0  0  0  0  0  0  0  0
   28.7975   51.1140   54.1896 C   0  0  0  0  0  0  0  0  0  0  0  0
   29.1326   49.7725   54.0390 C   0  0  0  0  0  0  0  0  0  0  0  0
   28.4834   48.8191   54.7236 N   0  0  0  0  0  0  0  0  0  0  0  0
   27.4917   49.1194   55.5756 C   0  0  0  0  0  0  0  0  0  0  0  0
   25.4531   49.8844   57.4733 N   0  0  0  0  0  0  0  0  0  0  0  0
   25.5740   49.3590   60.8074 H   0  0  0  0  0  0  0  0  0  0  0  0
   25.8505   48.1544   61.8746 H   0  0  0  0  0  0  0  0  0  0  0  0
   26.9418   48.4730   60.7025 H   0  0  0  0  0  0  0  0  0  0  0  0
   26.3983   45.8373   60.6169 H   0  0  0  0  0  0  0  0  0  0  0  0
   25.3149   44.2562   59.1790 H   0  0  0  0  0  0  0  0  0  0  0  0
   22.5126   44.2647   57.7997 H   0  0  0  0  0  0  0  0  0  0  0  0
   24.2778   42.6570   54.1727 H   0  0  0  0  0  0  0  0  0  0  0  0
   22.7813   41.9135   52.4532 H   0  0  0  0  0  0  0  0  0  0  0  0
   20.7210   42.4535   51.1914 H   0  0  0  0  0  0  0  0  0  0  0  0
   19.5108   43.2877   51.9029 H   0  0  0  0  0  0  0  0  0  0  0  0
   19.8136   41.0601   53.3245 H   0  0  0  0  0  0  0  0  0  0  0  0
   20.9598   40.0749   51.6315 H   0  0  0  0  0  0  0  0  0  0  0  0
   19.8431   40.5470   50.5375 H   0  0  0  0  0  0  0  0  0  0  0  0
   19.4383   38.6140   52.6327 H   0  0  0  0  0  0  0  0  0  0  0  0
   19.4574   38.2955   51.0311 H   0  0  0  0  0  0  0  0  0  0  0  0
   17.3694   38.9309   52.5520 H   0  0  0  0  0  0  0  0  0  0  0  0
   16.1420   38.5009   50.6258 H   0  0  0  0  0  0  0  0  0  0  0  0
   17.5220   38.5324   49.7531 H   0  0  0  0  0  0  0  0  0  0  0  0
   17.2941   37.3714   50.8787 H   0  0  0  0  0  0  0  0  0  0  0  0
   16.3812   40.6896   51.5401 H   0  0  0  0  0  0  0  0  0  0  0  0
   17.6176   40.8412   50.4843 H   0  0  0  0  0  0  0  0  0  0  0  0
   17.7254   41.3664   53.3082 H   0  0  0  0  0  0  0  0  0  0  0  0
   17.8959   42.4707   52.1173 H   0  0  0  0  0  0  0  0  0  0  0  0
   19.7807   44.2922   54.0561 H   0  0  0  0  0  0  0  0  0  0  0  0
   21.2813   45.0325   55.7736 H   0  0  0  0  0  0  0  0  0  0  0  0
   22.8647   47.2715   57.7198 H   0  0  0  0  0  0  0  0  0  0  0  0
   23.0959   49.5165   59.7636 H   0  0  0  0  0  0  0  0  0  0  0  0
   24.2648   53.3848   57.6923 H   0  0  0  0  0  0  0  0  0  0  0  0
   26.0382   52.8169   56.1700 H   0  0  0  0  0  0  0  0  0  0  0  0
   27.5116   52.4091   55.1939 H   0  0  0  0  0  0  0  0  0  0  0  0
   29.2840   51.8216   53.6770 H   0  0  0  0  0  0  0  0  0  0  0  0
   29.8677   49.5153   53.4117 H   0  0  0  0  0  0  0  0  0  0  0  0
   27.0233   48.3904   56.0748 H   0  0  0  0  0  0  0  0  0  0  0  0
  1  2  1  0  0  0  0
  2  3  2  0  0  0  0
  3  4  1  0  0  0  0
  4  5  2  0  0  0  0
  5  6  1  0  0  0  0
  6  7  1  0  0  0  0
  7  8  2  0  0  0  0
  7  9  1  0  0  0  0
  9 10  2  0  0  0  0
 10 11  1  0  0  0  0
 11 12  2  0  0  0  0
 12 13  1  0  0  0  0
 13 14  1  0  0  0  0
 14 15  1  0  0  0  0
 15 16  1  0  0  0  0
 16 17  1  0  0  0  0
 17 18  1  0  0  0  0
 17 19  1  0  0  0  0
 19 20  1  0  0  0  0
 12 21  1  0  0  0  0
 21 22  2  0  0  0  0
  5 23  1  0  0  0  0
 23 24  2  0  0  0  0
 24 25  1  0  0  0  0
 25 26  1  0  0  0  0
 26 27  2  0  0  0  0
 27 28  1  0  0  0  0
 28 29  2  0  0  0  0
 29 30  1  0  0  0  0
 30 31  1  0  0  0  0
 31 32  2  0  0  0  0
 32 33  1  0  0  0  0
 33 34  2  0  0  0  0
 34 35  1  0  0  0  0
 35 36  2  0  0  0  0
 30 37  2  0  0  0  0
 24  2  1  0  0  0  0
 37 26  1  0  0  0  0
 22  9  1  0  0  0  0
 36 31  1  0  0  0  0
 20 14  1  0  0  0  0
  1 38  1  0  0  0  0
  1 39  1  0  0  0  0
  1 40  1  0  0  0  0
  3 41  1  0  0  0  0
  4 42  1  0  0  0  0
  6 43  1  0  0  0  0
 10 44  1  0  0  0  0
 11 45  1  0  0  0  0
 13 46  1  0  0  0  0
 13 47  1  0  0  0  0
 14 48  1  0  0  0  0
 15 49  1  0  0  0  0
 15 50  1  0  0  0  0
 16 51  1  0  0  0  0
 16 52  1  0  0  0  0
 17 53  1  0  0  0  0
 18 54  1  0  0  0  0
 18 55  1  0  0  0  0
 18 56  1  0  0  0  0
 19 57  1  0  0  0  0
 19 58  1  0  0  0  0
 20 59  1  0  0  0  0
 20 60  1  0  0  0  0
 21 61  1  0  0  0  0
 22 62  1  0  0  0  0
 23 63  1  0  0  0  0
 25 64  1  0  0  0  0
 28 65  1  0  0  0  0
 29 66  1  0  0  0  0
 32 67  1  0  0  0  0
 33 68  1  0  0  0  0
 34 69  1  0  0  0  0
 36 70  1  0  0  0  0
M  CHG  2  14   1  17   1
M  END
> <BIOSOLVEIT.HYDE_ESTIMATED_AFFINITY_LOWER_BOUNDARY [nM]>
1909.927957

> <BIOSOLVEIT.HYDE_ESTIMATED_AFFINITY_UPPER_BOUNDARY [nM]>
189762.634908

> <BIOSOLVEIT.HYDE_LIGAND_EFFICIENCY range: ++, +, 0, -, -->
--

> <BIOSOLVEIT.HYDE_LIGAND_LIPOPHILIC_EFFICIENCY range: ++, +, 0, -, -->
-

> <BIOSOLVEIT.INTER_CLASH range: red, yellow, green>
green

> <BIOSOLVEIT.INTRA_CLASH range: red, yellow, green>
green

> <BIOSOLVEIT.LOGP>
1.75612

> <BIOSOLVEIT.MOLECULAR WEIGHT>
495.628

> <BIOSOLVEIT.MOLECULE_CHECKSUM>
LTI2Ljk0NDswLjcyODIxNg==

> <BIOSOLVEIT.TORSION_QUALITY range: red, yellow, green, not rotatable>
red

> <BIOSOLVEIT.TPSA>
88.68

$$$$
3K5V_STI_3
foHydescor03222115283D 1   1.00000     0.00000     0
Hydescorer 1.1.0 fol007
 69 73  0  0  0  0            999 V2000
   23.9382   47.1297   60.9843 C   0  0  0  0  0  0  0  0  0  0  0  0
   23.5414   46.2250   59.8290 C   0  0  0  0  0  0  0  0  0  0  0  0
   23.5137   46.7550   58.5432 C   0  0  0  0  0  0  0  0  0  0  0  0
   23.1547   45.9501   57.4668 C   0  0  0  0  0  0  0  0  0  0  0  0
   22.8262   44.6172   57.6915 C   0  0  0  0  0  0  0  0  0  0  0  0
   22.4634   43.7988   56.6151 N   0  0  0  0  0  0  0  0  0  0  0  0
   21.9643   44.3009   55.3638 C   0  0  0  0  0  0  0  0  0  0  0  0
   22.3356   45.4347   54.9531 O   0  0  0  0  0  0  0  0  0  0  0  0
   21.0571   43.4819   54.5235 C   0  0  0  0  0  0  0  0  0  0  0  0
   20.7501   42.1831   54.9168 C   0  0  0  0  0  0  0  0  0  0  0  0
   19.8996   41.4033   54.1396 C   0  0  0  0  0  0  0  0  0  0  0  0
   19.3659   41.9407   52.9719 C   0  0  0  0  0  0  0  0  0  0  0  0
   18.4358   41.0997   52.1123 C   0  0  0  0  0  0  0  0  0  0  0  0
   18.9538   39.7248   51.9140 N   0  3  0  0  0  0  0  0  0  0  0  0
   17.8216   38.7859   51.9517 C   0  0  0  0  0  0  0  0  0  0  0  0
   18.1076   37.5593   51.0976 C   0  0  0  0  0  0  0  0  0  0  0  0
   18.1855   37.9207   49.6744 N   0  0  0  0  0  0  0  0  0  0  0  0
   16.8632   37.8894   49.0310 C   0  0  0  0  0  0  0  0  0  0  0  0
   18.7539   39.2647   49.4924 C   0  0  0  0  0  0  0  0  0  0  0  0
   19.6896   39.5974   50.6451 C   0  0  0  0  0  0  0  0  0  0  0  0
   19.6703   43.2384   52.5748 C   0  0  0  0  0  0  0  0  0  0  0  0
   20.5213   44.0144   53.3557 C   0  0  0  0  0  0  0  0  0  0  0  0
   22.8516   44.0800   58.9744 C   0  0  0  0  0  0  0  0  0  0  0  0
   23.2115   44.8908   60.0462 C   0  0  0  0  0  0  0  0  0  0  0  0
   23.2426   44.3514   61.3749 N   0  0  0  0  0  0  0  0  0  0  0  0
   22.2395   43.5036   61.8619 C   0  0  0  0  0  0  0  0  0  0  0  0
   22.5952   42.3718   62.4873 N   0  0  0  0  0  0  0  0  0  0  0  0
   21.6780   41.5226   62.9735 C   0  0  0  0  0  0  0  0  0  0  0  0
   20.3262   41.8171   62.8291 C   0  0  0  0  0  0  0  0  0  0  0  0
   19.9671   42.9929   62.1789 C   0  0  0  0  0  0  0  0  0  0  0  0
   18.5581   43.3077   62.0237 C   0  0  0  0  0  0  0  0  0  0  0  0
   17.6323   42.7501   62.8992 C   0  0  0  0  0  0  0  0  0  0  0  0
   16.2842   43.0548   62.7478 C   0  0  0  0  0  0  0  0  0  0  0  0
   15.9041   43.9117   61.7204 C   0  0  0  0  0  0  0  0  0  0  0  0
   16.8158   44.4371   60.8885 N   0  0  0  0  0  0  0  0  0  0  0  0
   18.1221   44.1590   61.0137 C   0  0  0  0  0  0  0  0  0  0  0  0
   20.9374   43.7981   61.7164 N   0  0  0  0  0  0  0  0  0  0  0  0
   23.9117   46.6106   61.8386 H   0  0  0  0  0  0  0  0  0  0  0  0
   24.8641   47.4763   60.8335 H   0  0  0  0  0  0  0  0  0  0  0  0
   23.3001   47.8976   61.0408 H   0  0  0  0  0  0  0  0  0  0  0  0
   23.7518   47.7145   58.3926 H   0  0  0  0  0  0  0  0  0  0  0  0
   23.1330   46.3262   56.5405 H   0  0  0  0  0  0  0  0  0  0  0  0
   22.5566   42.8090   56.7227 H   0  0  0  0  0  0  0  0  0  0  0  0
   21.1408   41.8100   55.7584 H   0  0  0  0  0  0  0  0  0  0  0  0
   19.6747   40.4691   54.4162 H   0  0  0  0  0  0  0  0  0  0  0  0
   18.3361   41.5391   51.2195 H   0  0  0  0  0  0  0  0  0  0  0  0
   17.5428   41.0469   52.5593 H   0  0  0  0  0  0  0  0  0  0  0  0
   19.5750   39.5061   52.6665 H   0  0  0  0  0  0  0  0  0  0  0  0
   17.0038   39.2443   51.6035 H   0  0  0  0  0  0  0  0  0  0  0  0
   17.6656   38.4982   52.8966 H   0  0  0  0  0  0  0  0  0  0  0  0
   17.3744   36.8917   51.2267 H   0  0  0  0  0  0  0  0  0  0  0  0
   18.9781   37.1576   51.3819 H   0  0  0  0  0  0  0  0  0  0  0  0
   16.9554   38.1398   48.0673 H   0  0  0  0  0  0  0  0  0  0  0  0
   16.4802   36.9683   49.1010 H   0  0  0  0  0  0  0  0  0  0  0  0
   16.2550   38.5389   49.4874 H   0  0  0  0  0  0  0  0  0  0  0  0
   18.0132   39.9359   49.4634 H   0  0  0  0  0  0  0  0  0  0  0  0
   19.2643   39.2943   48.6330 H   0  0  0  0  0  0  0  0  0  0  0  0
   20.1526   40.4618   50.4492 H   0  0  0  0  0  0  0  0  0  0  0  0
   20.3683   38.8683   50.7342 H   0  0  0  0  0  0  0  0  0  0  0  0
   19.2798   43.6115   51.7331 H   0  0  0  0  0  0  0  0  0  0  0  0
   20.7463   44.9486   53.0791 H   0  0  0  0  0  0  0  0  0  0  0  0
   22.6135   43.1204   59.1248 H   0  0  0  0  0  0  0  0  0  0  0  0
   24.0069   44.5889   61.9744 H   0  0  0  0  0  0  0  0  0  0  0  0
   21.9640   40.6836   63.4365 H   0  0  0  0  0  0  0  0  0  0  0  0
   19.6276   41.1966   63.1853 H   0  0  0  0  0  0  0  0  0  0  0  0
   17.9330   42.1368   63.6296 H   0  0  0  0  0  0  0  0  0  0  0  0
   15.6011   42.6653   63.3657 H   0  0  0  0  0  0  0  0  0  0  0  0
   14.9378   44.1393   61.6003 H   0  0  0  0  0  0  0  0  0  0  0  0
   18.7824   44.5636   60.3810 H   0  0  0  0  0  0  0  0  0  0  0  0
  1  2  1  0  0  0  0
  2  3  2  0  0  0  0
  3  4  1  0  0  0  0
  4  5  2  0  0  0  0
  5  6  1  0  0  0  0
  6  7  1  0  0  0  0
  7  8  2  0  0  0  0
  7  9  1  0  0  0  0
  9 10  2  0  0  0  0
 10 11  1  0  0  0  0
 11 12  2  0  0  0  0
 12 13  1  0  0  0  0
 13 14  1  0  0  0  0
 14 15  1  0  0  0  0
 15 16  1  0  0  0  0
 16 17  1  0  0  0  0
 17 18  1  0  0  0  0
 17 19  1  0  0  0  0
 19 20  1  0  0  0  0
 12 21  1  0  0  0  0
 21 22  2  0  0  0  0
  5 23  1  0  0  0  0
 23 24  2  0  0  0  0
 24 25  1  0  0  0  0
 25 26  1  0  0  0  0
 26 27  2  0  0  0  0
 27 28  1  0  0  0  0
 28 29  2  0  0  0  0
 29 30  1  0  0  0  0
 30 31  1  0  0  0  0
 31 32  2  0  0  0  0
 32 33  1  0  0  0  0
 33 34  2  0  0  0  0
 34 35  1  0  0  0  0
 35 36  2  0  0  0  0
 30 37  2  0  0  0  0
 24  2  1  0  0  0  0
 37 26  1  0  0  0  0
 22  9  1  0  0  0  0
 36 31  1  0  0  0  0
 20 14  1  0  0  0  0
  1 38  1  0  0  0  0
  1 39  1  0  0  0  0
  1 40  1  0  0  0  0
  3 41  1  0  0  0  0
  4 42  1  0  0  0  0
  6 43  1  0  0  0  0
 10 44  1  0  0  0  0
 11 45  1  0  0  0  0
 13 46  1  0  0  0  0
 13 47  1  0  0  0  0
 14 48  1  0  0  0  0
 15 49  1  0  0  0  0
 15 50  1  0  0  0  0
 16 51  1  0  0  0  0
 16 52  1  0  0  0  0
 36 69  1  0  0  0  0
 18 53  1  0  0  0  0
 18 54  1  0  0  0  0
 18 55  1  0  0  0  0
 19 56  1  0  0  0  0
 19 57  1  0  0  0  0
 20 58  1  0  0  0  0
 20 59  1  0  0  0  0
 21 60  1  0  0  0  0
 22 61  1  0  0  0  0
 23 62  1  0  0  0  0
 25 63  1  0  0  0  0
 28 64  1  0  0  0  0
 29 65  1  0  0  0  0
 32 66  1  0  0  0  0
 33 67  1  0  0  0  0
 34 68  1  0  0  0  0
M  CHG  1  14   1
M  END
> <BIOSOLVEIT.HYDE_ESTIMATED_AFFINITY_LOWER_BOUNDARY [nM]>
71960.931343

> <BIOSOLVEIT.HYDE_ESTIMATED_AFFINITY_UPPER_BOUNDARY [nM]>
7149743.995629

> <BIOSOLVEIT.HYDE_LIGAND_EFFICIENCY range: ++, +, 0, -, -->
--

> <BIOSOLVEIT.HYDE_LIGAND_LIPOPHILIC_EFFICIENCY range: ++, +, 0, -, -->
--

> <BIOSOLVEIT.INTER_CLASH range: red, yellow, green>
green

> <BIOSOLVEIT.INTRA_CLASH range: red, yellow, green>
red

> <BIOSOLVEIT.LOGP>
3.17322

> <BIOSOLVEIT.MOLECULAR WEIGHT>
494.62

> <BIOSOLVEIT.MOLECULE_CHECKSUM>
LTE3Ljk0Nzc7MC40ODUwNzQ=

> <BIOSOLVEIT.TORSION_QUALITY range: red, yellow, green, not rotatable>
red

> <BIOSOLVEIT.TPSA>
87.48

$$$$
