1FPU_PRC_1
foHydescor03222115273D 1   1.00000     0.00000     0
Hydescorer 1.1.0 fol007
 47 50  0  0  0  0            999 V2000
   -1.1684   61.1134   31.1514 C   0  0  0  0  0  0  0  0  0  0  0  0
   -2.6716   60.9546   30.9911 C   0  0  0  0  0  0  0  0  0  0  0  0
   -3.1666   59.7644   30.4685 C   0  0  0  0  0  0  0  0  0  0  0  0
   -4.5379   59.5910   30.3109 C   0  0  0  0  0  0  0  0  0  0  0  0
   -5.4020   60.6166   30.6805 C   0  0  0  0  0  0  0  0  0  0  0  0
   -6.7837   60.4524   30.5258 N   0  0  0  0  0  0  0  0  0  0  0  0
   -7.7471   60.8069   31.5324 C   0  0  0  0  0  0  0  0  0  0  0  0
   -7.4998   61.7553   32.3271 O   0  0  0  0  0  0  0  0  0  0  0  0
   -9.0511   60.1061   31.6174 C   0  0  0  0  0  0  0  0  0  0  0  0
   -9.7734   60.1471   32.8053 C   0  0  0  0  0  0  0  0  0  0  0  0
  -10.9961   59.4895   32.8807 C   0  0  0  0  0  0  0  0  0  0  0  0
  -11.4589   58.8086   31.7597 C   0  0  0  0  0  0  0  0  0  0  0  0
  -10.7440   58.7834   30.6251 N   0  0  0  0  0  0  0  0  0  0  0  0
   -9.5619   59.4100   30.5268 C   0  0  0  0  0  0  0  0  0  0  0  0
   -4.9146   61.8098   31.2039 C   0  0  0  0  0  0  0  0  0  0  0  0
   -3.5419   61.9762   31.3586 C   0  0  0  0  0  0  0  0  0  0  0  0
   -3.0364   63.1713   31.8842 N   0  0  0  0  0  0  0  0  0  0  0  0
   -3.4637   64.4550   31.4137 C   0  0  0  0  0  0  0  0  0  0  0  0
   -4.3391   64.5147   30.3993 N   0  0  0  0  0  0  0  0  0  0  0  0
   -4.7739   65.6885   29.9178 C   0  0  0  0  0  0  0  0  0  0  0  0
   -4.3100   66.8738   30.4789 C   0  0  0  0  0  0  0  0  0  0  0  0
   -3.4024   66.8019   31.5300 C   0  0  0  0  0  0  0  0  0  0  0  0
   -2.9129   68.0345   32.1213 C   0  0  0  0  0  0  0  0  0  0  0  0
   -1.5861   68.4050   31.9299 C   0  0  0  0  0  0  0  0  0  0  0  0
   -1.1216   69.5865   32.4971 C   0  0  0  0  0  0  0  0  0  0  0  0
   -2.0038   70.3629   33.2408 C   0  0  0  0  0  0  0  0  0  0  0  0
   -3.2793   69.9843   33.4114 N   0  0  0  0  0  0  0  0  0  0  0  0
   -3.7518   68.8494   32.8744 C   0  0  0  0  0  0  0  0  0  0  0  0
   -3.0090   65.5930   31.9629 N   0  0  0  0  0  0  0  0  0  0  0  0
   -0.9676   62.0144   31.5360 H   0  0  0  0  0  0  0  0  0  0  0  0
   -0.8219   60.4042   31.7652 H   0  0  0  0  0  0  0  0  0  0  0  0
   -0.7269   61.0263   30.2584 H   0  0  0  0  0  0  0  0  0  0  0  0
   -2.5368   59.0333   30.2060 H   0  0  0  0  0  0  0  0  0  0  0  0
   -4.8990   58.7374   29.9356 H   0  0  0  0  0  0  0  0  0  0  0  0
   -7.1196   60.0666   29.6666 H   0  0  0  0  0  0  0  0  0  0  0  0
   -9.4173   60.6442   33.5966 H   0  0  0  0  0  0  0  0  0  0  0  0
  -11.5324   59.5057   33.7245 H   0  0  0  0  0  0  0  0  0  0  0  0
  -12.3367   58.3314   31.8002 H   0  0  0  0  0  0  0  0  0  0  0  0
   -9.0480   59.3766   29.6696 H   0  0  0  0  0  0  0  0  0  0  0  0
   -5.5446   62.5407   31.4665 H   0  0  0  0  0  0  0  0  0  0  0  0
   -2.3534   63.1272   32.6133 H   0  0  0  0  0  0  0  0  0  0  0  0
   -5.4268   65.7114   29.1608 H   0  0  0  0  0  0  0  0  0  0  0  0
   -4.6226   67.7588   30.1337 H   0  0  0  0  0  0  0  0  0  0  0  0
   -0.9729   67.8280   31.3904 H   0  0  0  0  0  0  0  0  0  0  0  0
   -0.1715   69.8725   32.3726 H   0  0  0  0  0  0  0  0  0  0  0  0
   -1.6828   71.2150   33.6541 H   0  0  0  0  0  0  0  0  0  0  0  0
   -4.7069   68.5892   33.0157 H   0  0  0  0  0  0  0  0  0  0  0  0
  1  2  1  0  0  0  0
  2  3  2  0  0  0  0
  3  4  1  0  0  0  0
  4  5  2  0  0  0  0
  5  6  1  0  0  0  0
  6  7  1  0  0  0  0
  7  8  2  0  0  0  0
  7  9  1  0  0  0  0
  9 10  2  0  0  0  0
 10 11  1  0  0  0  0
 11 12  2  0  0  0  0
 12 13  1  0  0  0  0
 13 14  2  0  0  0  0
  5 15  1  0  0  0  0
 15 16  2  0  0  0  0
 16 17  1  0  0  0  0
 17 18  1  0  0  0  0
 18 19  2  0  0  0  0
 19 20  1  0  0  0  0
 20 21  2  0  0  0  0
 21 22  1  0  0  0  0
 22 23  1  0  0  0  0
 23 24  2  0  0  0  0
 24 25  1  0  0  0  0
 25 26  2  0  0  0  0
 26 27  1  0  0  0  0
 27 28  2  0  0  0  0
 22 29  2  0  0  0  0
 16  2  1  0  0  0  0
 29 18  1  0  0  0  0
 14  9  1  0  0  0  0
 28 23  1  0  0  0  0
  1 30  1  0  0  0  0
  1 31  1  0  0  0  0
  1 32  1  0  0  0  0
  3 33  1  0  0  0  0
  4 34  1  0  0  0  0
  6 35  1  0  0  0  0
 10 36  1  0  0  0  0
 11 37  1  0  0  0  0
 12 38  1  0  0  0  0
 14 39  1  0  0  0  0
 15 40  1  0  0  0  0
 17 41  1  0  0  0  0
 20 42  1  0  0  0  0
 21 43  1  0  0  0  0
 24 44  1  0  0  0  0
 25 45  1  0  0  0  0
 26 46  1  0  0  0  0
 28 47  1  0  0  0  0
M  END
> <BIOSOLVEIT.HYDE_ESTIMATED_AFFINITY_LOWER_BOUNDARY [nM]>
12543679.281307

> <BIOSOLVEIT.HYDE_ESTIMATED_AFFINITY_UPPER_BOUNDARY [nM]>
1246288700.699157

> <BIOSOLVEIT.HYDE_LIGAND_EFFICIENCY range: ++, +, 0, -, -->
--

> <BIOSOLVEIT.HYDE_LIGAND_LIPOPHILIC_EFFICIENCY range: ++, +, 0, -, -->
--

> <BIOSOLVEIT.INTER_CLASH range: red, yellow, green>
green

> <BIOSOLVEIT.INTRA_CLASH range: red, yellow, green>
yellow

> <BIOSOLVEIT.LOGP>
4.23792

> <BIOSOLVEIT.MOLECULAR WEIGHT>
382.425

> <BIOSOLVEIT.MOLECULE_CHECKSUM>
LTUuMTU0MjE7MC4xNzc3MzE=

> <BIOSOLVEIT.TORSION_QUALITY range: red, yellow, green, not rotatable>
yellow

> <BIOSOLVEIT.TPSA>
92.69

$$$$
1FPU_PRC_2
foHydescor03222115273D 1   1.00000     0.00000     0
Hydescorer 1.1.0 fol007
 47 50  0  0  0  0            999 V2000
   -7.1168   66.4491   29.8880 C   0  0  0  0  0  0  0  0  0  0  0  0
   -5.8604   66.9140   30.6066 C   0  0  0  0  0  0  0  0  0  0  0  0
   -5.3183   68.1509   30.2737 C   0  0  0  0  0  0  0  0  0  0  0  0
   -4.1693   68.6021   30.9153 C   0  0  0  0  0  0  0  0  0  0  0  0
   -3.5738   67.8057   31.8879 C   0  0  0  0  0  0  0  0  0  0  0  0
   -2.3855   68.2625   32.5573 N   0  0  0  0  0  0  0  0  0  0  0  0
   -2.0485   69.6498   32.7270 C   0  0  0  0  0  0  0  0  0  0  0  0
   -2.9679   70.5092   32.8204 O   0  0  0  0  0  0  0  0  0  0  0  0
   -0.6342   70.0799   32.8447 C   0  0  0  0  0  0  0  0  0  0  0  0
    0.3374   69.4548   32.0703 C   0  0  0  0  0  0  0  0  0  0  0  0
    1.6622   69.8616   32.1831 C   0  0  0  0  0  0  0  0  0  0  0  0
    1.9736   70.8855   33.0713 C   0  0  0  0  0  0  0  0  0  0  0  0
    1.0188   71.4730   33.8076 N   0  0  0  0  0  0  0  0  0  0  0  0
   -0.2664   71.0991   33.7171 C   0  0  0  0  0  0  0  0  0  0  0  0
   -4.1101   66.5675   32.2263 C   0  0  0  0  0  0  0  0  0  0  0  0
   -5.2593   66.1226   31.5804 C   0  0  0  0  0  0  0  0  0  0  0  0
   -5.8109   64.8788   31.9104 N   0  0  0  0  0  0  0  0  0  0  0  0
   -5.1815   63.6433   31.5507 C   0  0  0  0  0  0  0  0  0  0  0  0
   -3.8566   63.6276   31.3433 N   0  0  0  0  0  0  0  0  0  0  0  0
   -3.2142   62.5002   31.0045 C   0  0  0  0  0  0  0  0  0  0  0  0
   -3.9329   61.3175   30.8638 C   0  0  0  0  0  0  0  0  0  0  0  0
   -5.3063   61.3436   31.0807 C   0  0  0  0  0  0  0  0  0  0  0  0
   -6.0640   60.1135   30.9356 C   0  0  0  0  0  0  0  0  0  0  0  0
   -7.4525   60.1532   31.0072 C   0  0  0  0  0  0  0  0  0  0  0  0
   -8.1745   58.9733   30.8669 C   0  0  0  0  0  0  0  0  0  0  0  0
   -7.4807   57.7860   30.6583 C   0  0  0  0  0  0  0  0  0  0  0  0
   -6.1411   57.7732   30.5930 N   0  0  0  0  0  0  0  0  0  0  0  0
   -5.4216   58.8979   30.7251 C   0  0  0  0  0  0  0  0  0  0  0  0
   -5.8854   62.5076   31.4174 N   0  0  0  0  0  0  0  0  0  0  0  0
   -7.3840   65.5491   30.2323 H   0  0  0  0  0  0  0  0  0  0  0  0
   -7.8561   67.1020   30.0530 H   0  0  0  0  0  0  0  0  0  0  0  0
   -6.9367   66.3904   28.9061 H   0  0  0  0  0  0  0  0  0  0  0  0
   -5.7544   68.7158   29.5732 H   0  0  0  0  0  0  0  0  0  0  0  0
   -3.7753   69.4905   30.6796 H   0  0  0  0  0  0  0  0  0  0  0  0
   -1.7582   67.5763   32.9256 H   0  0  0  0  0  0  0  0  0  0  0  0
    0.0859   68.7208   31.4394 H   0  0  0  0  0  0  0  0  0  0  0  0
    2.3773   69.4263   31.6361 H   0  0  0  0  0  0  0  0  0  0  0  0
    2.9225   71.1878   33.1623 H   0  0  0  0  0  0  0  0  0  0  0  0
   -0.9599   71.5530   34.2766 H   0  0  0  0  0  0  0  0  0  0  0  0
   -3.6740   66.0028   32.9269 H   0  0  0  0  0  0  0  0  0  0  0  0
   -6.6740   64.8519   32.4145 H   0  0  0  0  0  0  0  0  0  0  0  0
   -2.2256   62.5096   30.8541 H   0  0  0  0  0  0  0  0  0  0  0  0
   -3.4718   60.4666   30.6120 H   0  0  0  0  0  0  0  0  0  0  0  0
   -7.9263   61.0209   31.1580 H   0  0  0  0  0  0  0  0  0  0  0  0
   -9.1733   58.9781   30.9150 H   0  0  0  0  0  0  0  0  0  0  0  0
   -7.9876   56.9301   30.5556 H   0  0  0  0  0  0  0  0  0  0  0  0
   -4.4237   58.8622   30.6722 H   0  0  0  0  0  0  0  0  0  0  0  0
  1  2  1  0  0  0  0
  2  3  2  0  0  0  0
  3  4  1  0  0  0  0
  4  5  2  0  0  0  0
  5  6  1  0  0  0  0
  6  7  1  0  0  0  0
  7  8  2  0  0  0  0
  7  9  1  0  0  0  0
  9 10  2  0  0  0  0
 10 11  1  0  0  0  0
 11 12  2  0  0  0  0
 12 13  1  0  0  0  0
 13 14  2  0  0  0  0
  5 15  1  0  0  0  0
 15 16  2  0  0  0  0
 16 17  1  0  0  0  0
 17 18  1  0  0  0  0
 18 19  2  0  0  0  0
 19 20  1  0  0  0  0
 20 21  2  0  0  0  0
 21 22  1  0  0  0  0
 22 23  1  0  0  0  0
 23 24  2  0  0  0  0
 24 25  1  0  0  0  0
 25 26  2  0  0  0  0
 26 27  1  0  0  0  0
 27 28  2  0  0  0  0
 22 29  2  0  0  0  0
 16  2  1  0  0  0  0
 29 18  1  0  0  0  0
 14  9  1  0  0  0  0
 28 23  1  0  0  0  0
  1 30  1  0  0  0  0
  1 31  1  0  0  0  0
  1 32  1  0  0  0  0
  3 33  1  0  0  0  0
  4 34  1  0  0  0  0
  6 35  1  0  0  0  0
 10 36  1  0  0  0  0
 11 37  1  0  0  0  0
 12 38  1  0  0  0  0
 14 39  1  0  0  0  0
 15 40  1  0  0  0  0
 17 41  1  0  0  0  0
 20 42  1  0  0  0  0
 21 43  1  0  0  0  0
 24 44  1  0  0  0  0
 25 45  1  0  0  0  0
 26 46  1  0  0  0  0
 28 47  1  0  0  0  0
M  END
> <BIOSOLVEIT.HYDE_ESTIMATED_AFFINITY_LOWER_BOUNDARY [nM]>
35213091.845430

> <BIOSOLVEIT.HYDE_ESTIMATED_AFFINITY_UPPER_BOUNDARY [nM]>
3498628871.119381

> <BIOSOLVEIT.HYDE_LIGAND_EFFICIENCY range: ++, +, 0, -, -->
--

> <BIOSOLVEIT.HYDE_LIGAND_LIPOPHILIC_EFFICIENCY range: ++, +, 0, -, -->
--

> <BIOSOLVEIT.INTER_CLASH range: red, yellow, green>
red

> <BIOSOLVEIT.INTRA_CLASH range: red, yellow, green>
green

> <BIOSOLVEIT.LOGP>
4.23792

> <BIOSOLVEIT.MOLECULAR WEIGHT>
382.425

> <BIOSOLVEIT.MOLECULE_CHECKSUM>
LTIuNTk1NDM7MC4wODk0OTc0

> <BIOSOLVEIT.TORSION_QUALITY range: red, yellow, green, not rotatable>
green

> <BIOSOLVEIT.TPSA>
92.69

$$$$
1FPU_PRC_3
foHydescor03222115273D 1   1.00000     0.00000     0
Hydescorer 1.1.0 fol007
 47 50  0  0  0  0            999 V2000
   -7.2004   66.4629   29.9944 C   0  0  0  0  0  0  0  0  0  0  0  0
   -5.8918   66.9109   30.6251 C   0  0  0  0  0  0  0  0  0  0  0  0
   -5.3566   68.1399   30.2541 C   0  0  0  0  0  0  0  0  0  0  0  0
   -4.1606   68.5756   30.8153 C   0  0  0  0  0  0  0  0  0  0  0  0
   -3.5113   67.7716   31.7464 C   0  0  0  0  0  0  0  0  0  0  0  0
   -2.2739   68.2124   32.3327 N   0  0  0  0  0  0  0  0  0  0  0  0
   -2.0401   69.5564   32.7865 C   0  0  0  0  0  0  0  0  0  0  0  0
   -3.0048   70.2477   33.2155 O   0  0  0  0  0  0  0  0  0  0  0  0
   -0.6708   70.1253   32.8052 C   0  0  0  0  0  0  0  0  0  0  0  0
    0.2764   69.6576   31.9005 C   0  0  0  0  0  0  0  0  0  0  0  0
    1.5590   70.1942   31.9206 C   0  0  0  0  0  0  0  0  0  0  0  0
    1.8538   71.1862   32.8498 C   0  0  0  0  0  0  0  0  0  0  0  0
    0.9231   71.6209   33.7123 N   0  0  0  0  0  0  0  0  0  0  0  0
   -0.3212   71.1197   33.7130 C   0  0  0  0  0  0  0  0  0  0  0  0
   -4.0402   66.5412   32.1225 C   0  0  0  0  0  0  0  0  0  0  0  0
   -5.2367   66.1119   31.5569 C   0  0  0  0  0  0  0  0  0  0  0  0
   -5.7816   64.8759   31.9257 N   0  0  0  0  0  0  0  0  0  0  0  0
   -5.1755   63.6319   31.5559 C   0  0  0  0  0  0  0  0  0  0  0  0
   -3.8544   63.5977   31.3271 N   0  0  0  0  0  0  0  0  0  0  0  0
   -3.2334   62.4615   30.9780 C   0  0  0  0  0  0  0  0  0  0  0  0
   -3.9708   61.2890   30.8489 C   0  0  0  0  0  0  0  0  0  0  0  0
   -5.3400   61.3343   31.0880 C   0  0  0  0  0  0  0  0  0  0  0  0
   -6.1171   60.1149   30.9551 C   0  0  0  0  0  0  0  0  0  0  0  0
   -5.4600   58.8980   30.8075 C   0  0  0  0  0  0  0  0  0  0  0  0
   -6.2078   57.7325   30.6816 C   0  0  0  0  0  0  0  0  0  0  0  0
   -7.5955   57.8227   30.7075 C   0  0  0  0  0  0  0  0  0  0  0  0
   -8.2062   59.0082   30.8509 N   0  0  0  0  0  0  0  0  0  0  0  0
   -7.5076   60.1468   30.9746 C   0  0  0  0  0  0  0  0  0  0  0  0
   -5.8973   62.5061   31.4340 N   0  0  0  0  0  0  0  0  0  0  0  0
   -7.4559   65.5669   30.3575 H   0  0  0  0  0  0  0  0  0  0  0  0
   -7.9177   67.1260   30.2082 H   0  0  0  0  0  0  0  0  0  0  0  0
   -7.0884   66.4011   29.0026 H   0  0  0  0  0  0  0  0  0  0  0  0
   -5.8316   68.7104   29.5840 H   0  0  0  0  0  0  0  0  0  0  0  0
   -3.7713   69.4583   30.5519 H   0  0  0  0  0  0  0  0  0  0  0  0
   -1.5344   67.5463   32.4301 H   0  0  0  0  0  0  0  0  0  0  0  0
    0.0376   68.9431   31.2427 H   0  0  0  0  0  0  0  0  0  0  0  0
    2.2559   69.8731   31.2794 H   0  0  0  0  0  0  0  0  0  0  0  0
    2.7723   71.5809   32.8751 H   0  0  0  0  0  0  0  0  0  0  0  0
   -0.9974   71.4607   34.3660 H   0  0  0  0  0  0  0  0  0  0  0  0
   -3.5652   65.9709   32.7927 H   0  0  0  0  0  0  0  0  0  0  0  0
   -6.6230   64.8612   32.4658 H   0  0  0  0  0  0  0  0  0  0  0  0
   -2.2474   62.4571   30.8116 H   0  0  0  0  0  0  0  0  0  0  0  0
   -3.5257   60.4318   30.5897 H   0  0  0  0  0  0  0  0  0  0  0  0
   -4.4608   58.8616   30.7921 H   0  0  0  0  0  0  0  0  0  0  0  0
   -5.7566   56.8466   30.5745 H   0  0  0  0  0  0  0  0  0  0  0  0
   -8.1454   56.9922   30.6180 H   0  0  0  0  0  0  0  0  0  0  0  0
   -7.9863   61.0184   31.0807 H   0  0  0  0  0  0  0  0  0  0  0  0
  1  2  1  0  0  0  0
  2  3  2  0  0  0  0
  3  4  1  0  0  0  0
  4  5  2  0  0  0  0
  5  6  1  0  0  0  0
  6  7  1  0  0  0  0
  7  8  2  0  0  0  0
  7  9  1  0  0  0  0
  9 10  2  0  0  0  0
 10 11  1  0  0  0  0
 11 12  2  0  0  0  0
 12 13  1  0  0  0  0
 13 14  2  0  0  0  0
  5 15  1  0  0  0  0
 15 16  2  0  0  0  0
 16 17  1  0  0  0  0
 17 18  1  0  0  0  0
 18 19  2  0  0  0  0
 19 20  1  0  0  0  0
 20 21  2  0  0  0  0
 21 22  1  0  0  0  0
 22 23  1  0  0  0  0
 23 24  2  0  0  0  0
 24 25  1  0  0  0  0
 25 26  2  0  0  0  0
 26 27  1  0  0  0  0
 27 28  2  0  0  0  0
 22 29  2  0  0  0  0
 16  2  1  0  0  0  0
 29 18  1  0  0  0  0
 14  9  1  0  0  0  0
 28 23  1  0  0  0  0
  1 30  1  0  0  0  0
  1 31  1  0  0  0  0
  1 32  1  0  0  0  0
  3 33  1  0  0  0  0
  4 34  1  0  0  0  0
  6 35  1  0  0  0  0
 10 36  1  0  0  0  0
 11 37  1  0  0  0  0
 12 38  1  0  0  0  0
 14 39  1  0  0  0  0
 15 40  1  0  0  0  0
 17 41  1  0  0  0  0
 20 42  1  0  0  0  0
 21 43  1  0  0  0  0
 24 44  1  0  0  0  0
 25 45  1  0  0  0  0
 26 46  1  0  0  0  0
 28 47  1  0  0  0  0
M  END
> <BIOSOLVEIT.HYDE_ESTIMATED_AFFINITY_LOWER_BOUNDARY [nM]>
2156994.475595

> <BIOSOLVEIT.HYDE_ESTIMATED_AFFINITY_UPPER_BOUNDARY [nM]>
214310154.311035

> <BIOSOLVEIT.HYDE_LIGAND_EFFICIENCY range: ++, +, 0, -, -->
--

> <BIOSOLVEIT.HYDE_LIGAND_LIPOPHILIC_EFFICIENCY range: ++, +, 0, -, -->
--

> <BIOSOLVEIT.INTER_CLASH range: red, yellow, green>
red

> <BIOSOLVEIT.INTRA_CLASH range: red, yellow, green>
green

> <BIOSOLVEIT.LOGP>
4.23792

> <BIOSOLVEIT.MOLECULAR WEIGHT>
382.425

> <BIOSOLVEIT.MOLECULE_CHECKSUM>
LTkuNTE4NDE7MC4zMjgyMjE=

> <BIOSOLVEIT.TORSION_QUALITY range: red, yellow, green, not rotatable>
yellow

> <BIOSOLVEIT.TPSA>
92.69

$$$$
6HD6_FYH_1
foHydescor03222115273D 1   1.00000     0.00000     0
Hydescorer 1.1.0 fol007
 46 48  0  0  0  0            999 V2000
   -3.3118   67.3116   30.5748 O   0  0  0  0  0  0  0  0  0  0  0  0
   -2.4809   67.2653   31.5232 C   0  0  0  0  0  0  0  0  0  0  0  0
   -1.8842   66.0086   31.8861 N   0  0  0  0  0  0  0  0  0  0  0  0
   -2.5388   64.7378   31.7264 C   0  0  0  0  0  0  0  0  0  0  0  0
   -3.8410   64.6922   31.2387 C   0  0  0  0  0  0  0  0  0  0  0  0
   -4.4822   63.4674   31.0807 C   0  0  0  0  0  0  0  0  0  0  0  0
   -3.8062   62.2990   31.4159 C   0  0  0  0  0  0  0  0  0  0  0  0
   -4.4171   61.1049   31.2681 O   0  0  0  0  0  0  0  0  0  0  0  0
   -3.7953   59.9152   30.7873 C   0  0  0  0  0  0  0  0  0  0  0  0
   -2.7488   59.5857   31.6266 F   0  0  0  0  0  0  0  0  0  0  0  0
   -3.2973   60.1191   29.5126 F   0  0  0  0  0  0  0  0  0  0  0  0
   -4.7042   58.8725   30.7774 F   0  0  0  0  0  0  0  0  0  0  0  0
   -2.5037   62.3350   31.9050 C   0  0  0  0  0  0  0  0  0  0  0  0
   -1.8703   63.5637   32.0594 C   0  0  0  0  0  0  0  0  0  0  0  0
   -2.1025   68.4903   32.2002 C   0  0  0  0  0  0  0  0  0  0  0  0
   -3.0754   69.4298   32.5263 C   0  0  0  0  0  0  0  0  0  0  0  0
   -2.6938   70.5994   33.1758 C   0  0  0  0  0  0  0  0  0  0  0  0
   -1.3618   70.8367   33.4992 C   0  0  0  0  0  0  0  0  0  0  0  0
   -0.4055   69.8832   33.1638 C   0  0  0  0  0  0  0  0  0  0  0  0
    1.0447   70.1301   33.5106 C   0  0  0  0  0  0  0  0  0  0  0  0
    1.4196   69.4999   34.7850 N   0  0  0  0  0  0  0  0  0  0  0  0
    2.7849   68.9585   34.7223 C   0  0  0  0  0  0  0  0  0  0  0  0
    3.0638   68.1955   36.0086 C   0  0  0  0  0  0  0  0  0  0  0  0
    2.2487   68.6480   37.0851 O   0  0  0  0  0  0  0  0  0  0  0  0
    2.0845   70.0603   37.0753 C   0  0  0  0  0  0  0  0  0  0  0  0
    1.3248   70.5208   35.8401 C   0  0  0  0  0  0  0  0  0  0  0  0
   -0.7649   68.7068   32.5142 C   0  0  0  0  0  0  0  0  0  0  0  0
   -0.9615   66.0187   32.2715 H   0  0  0  0  0  0  0  0  0  0  0  0
   -4.3162   65.5396   31.0018 H   0  0  0  0  0  0  0  0  0  0  0  0
   -5.4179   63.4278   30.7302 H   0  0  0  0  0  0  0  0  0  0  0  0
   -2.0288   61.4876   32.1425 H   0  0  0  0  0  0  0  0  0  0  0  0
   -0.9346   63.6034   32.4097 H   0  0  0  0  0  0  0  0  0  0  0  0
   -4.0350   69.2667   32.2972 H   0  0  0  0  0  0  0  0  0  0  0  0
   -3.3872   71.2795   33.4137 H   0  0  0  0  0  0  0  0  0  0  0  0
   -1.0954   71.6801   33.9658 H   0  0  0  0  0  0  0  0  0  0  0  0
    1.1969   71.1159   33.5806 H   0  0  0  0  0  0  0  0  0  0  0  0
    1.6193   69.7549   32.7832 H   0  0  0  0  0  0  0  0  0  0  0  0
    3.4403   69.7076   34.6260 H   0  0  0  0  0  0  0  0  0  0  0  0
    2.8670   68.3412   33.9398 H   0  0  0  0  0  0  0  0  0  0  0  0
    4.0245   68.3208   36.2563 H   0  0  0  0  0  0  0  0  0  0  0  0
    2.8835   67.2242   35.8533 H   0  0  0  0  0  0  0  0  0  0  0  0
    2.9860   70.4930   37.0832 H   0  0  0  0  0  0  0  0  0  0  0  0
    1.5759   70.3346   37.8915 H   0  0  0  0  0  0  0  0  0  0  0  0
    1.7192   71.3779   35.5086 H   0  0  0  0  0  0  0  0  0  0  0  0
    0.3640   70.6653   36.0764 H   0  0  0  0  0  0  0  0  0  0  0  0
   -0.0715   68.0266   32.2764 H   0  0  0  0  0  0  0  0  0  0  0  0
  1  2  2  0  0  0  0
  2  3  1  0  0  0  0
  3  4  1  0  0  0  0
  4  5  2  0  0  0  0
  5  6  1  0  0  0  0
  6  7  2  0  0  0  0
  7  8  1  0  0  0  0
  8  9  1  0  0  0  0
  9 10  1  0  0  0  0
  9 11  1  0  0  0  0
  9 12  1  0  0  0  0
  7 13  1  0  0  0  0
 13 14  2  0  0  0  0
  2 15  1  0  0  0  0
 15 16  2  0  0  0  0
 16 17  1  0  0  0  0
 17 18  2  0  0  0  0
 18 19  1  0  0  0  0
 19 20  1  0  0  0  0
 20 21  1  0  0  0  0
 21 22  1  0  0  0  0
 22 23  1  0  0  0  0
 23 24  1  0  0  0  0
 24 25  1  0  0  0  0
 25 26  1  0  0  0  0
 19 27  2  0  0  0  0
 14  4  1  0  0  0  0
 27 15  1  0  0  0  0
 26 21  1  0  0  0  0
  3 28  1  0  0  0  0
  5 29  1  0  0  0  0
  6 30  1  0  0  0  0
 13 31  1  0  0  0  0
 14 32  1  0  0  0  0
 16 33  1  0  0  0  0
 17 34  1  0  0  0  0
 18 35  1  0  0  0  0
 20 36  1  0  0  0  0
 20 37  1  0  0  0  0
 27 46  1  0  0  0  0
 22 38  1  0  0  0  0
 22 39  1  0  0  0  0
 23 40  1  0  0  0  0
 23 41  1  0  0  0  0
 25 42  1  0  0  0  0
 25 43  1  0  0  0  0
 26 44  1  0  0  0  0
 26 45  1  0  0  0  0
M  END
> <BIOSOLVEIT.HYDE_ESTIMATED_AFFINITY_LOWER_BOUNDARY [nM]>
33501.699882

> <BIOSOLVEIT.HYDE_ESTIMATED_AFFINITY_UPPER_BOUNDARY [nM]>
3328591.960958

> <BIOSOLVEIT.HYDE_LIGAND_EFFICIENCY range: ++, +, 0, -, -->
--

> <BIOSOLVEIT.HYDE_LIGAND_LIPOPHILIC_EFFICIENCY range: ++, +, 0, -, -->
--

> <BIOSOLVEIT.INTER_CLASH range: red, yellow, green>
green

> <BIOSOLVEIT.INTRA_CLASH range: red, yellow, green>
yellow

> <BIOSOLVEIT.LOGP>
3.6697

> <BIOSOLVEIT.MOLECULAR WEIGHT>
380.364

> <BIOSOLVEIT.MOLECULE_CHECKSUM>
LTE5Ljg0MzswLjczNDkyNA==

> <BIOSOLVEIT.TORSION_QUALITY range: red, yellow, green, not rotatable>
red

> <BIOSOLVEIT.TPSA>
50.8

$$$$
6HD6_FYH_2
foHydescor03222115273D 1   1.00000     0.00000     0
Hydescorer 1.1.0 fol007
 46 48  0  0  0  0            999 V2000
   -3.2679   66.4775   30.2057 O   0  0  0  0  0  0  0  0  0  0  0  0
   -2.8531   66.7097   31.3744 C   0  0  0  0  0  0  0  0  0  0  0  0
   -2.2208   65.6603   32.1268 N   0  0  0  0  0  0  0  0  0  0  0  0
   -2.5337   64.2651   31.9704 C   0  0  0  0  0  0  0  0  0  0  0  0
   -3.7525   63.8928   31.4119 C   0  0  0  0  0  0  0  0  0  0  0  0
   -4.0638   62.5455   31.2566 C   0  0  0  0  0  0  0  0  0  0  0  0
   -3.1450   61.5848   31.6658 C   0  0  0  0  0  0  0  0  0  0  0  0
   -3.4352   60.2749   31.5212 O   0  0  0  0  0  0  0  0  0  0  0  0
   -3.0959   59.4758   30.3901 C   0  0  0  0  0  0  0  0  0  0  0  0
   -1.7226   59.4704   30.2408 F   0  0  0  0  0  0  0  0  0  0  0  0
   -3.6667   60.0028   29.2453 F   0  0  0  0  0  0  0  0  0  0  0  0
   -3.5291   58.1754   30.5776 F   0  0  0  0  0  0  0  0  0  0  0  0
   -1.9238   61.9479   32.2260 C   0  0  0  0  0  0  0  0  0  0  0  0
   -1.6209   63.2970   32.3772 C   0  0  0  0  0  0  0  0  0  0  0  0
   -2.9754   68.0465   31.9221 C   0  0  0  0  0  0  0  0  0  0  0  0
   -4.2291   68.6402   32.0251 C   0  0  0  0  0  0  0  0  0  0  0  0
   -4.3273   69.9236   32.5531 C   0  0  0  0  0  0  0  0  0  0  0  0
   -3.1948   70.6126   32.9749 C   0  0  0  0  0  0  0  0  0  0  0  0
   -1.9508   69.9994   32.8630 C   0  0  0  0  0  0  0  0  0  0  0  0
   -0.7136   70.7382   33.3185 C   0  0  0  0  0  0  0  0  0  0  0  0
    0.1042   69.9281   34.2323 N   0  0  0  0  0  0  0  0  0  0  0  0
    0.8502   70.8404   35.1112 C   0  0  0  0  0  0  0  0  0  0  0  0
    1.9614   70.0800   35.8180 C   0  0  0  0  0  0  0  0  0  0  0  0
    1.7338   68.6760   35.7905 O   0  0  0  0  0  0  0  0  0  0  0  0
    1.7289   68.1391   34.4727 C   0  0  0  0  0  0  0  0  0  0  0  0
    1.0319   69.0639   33.4881 C   0  0  0  0  0  0  0  0  0  0  0  0
   -1.8297   68.7169   32.3379 C   0  0  0  0  0  0  0  0  0  0  0  0
   -1.5237   65.9149   32.7971 H   0  0  0  0  0  0  0  0  0  0  0  0
   -4.4046   64.5933   31.1221 H   0  0  0  0  0  0  0  0  0  0  0  0
   -4.9378   62.2713   30.8554 H   0  0  0  0  0  0  0  0  0  0  0  0
   -1.2720   61.2473   32.5162 H   0  0  0  0  0  0  0  0  0  0  0  0
   -0.7468   63.5711   32.7784 H   0  0  0  0  0  0  0  0  0  0  0  0
   -5.0480   68.1515   31.7240 H   0  0  0  0  0  0  0  0  0  0  0  0
   -5.2251   70.3572   32.6306 H   0  0  0  0  0  0  0  0  0  0  0  0
   -3.2736   71.5350   33.3531 H   0  0  0  0  0  0  0  0  0  0  0  0
   -0.9921   71.5750   33.7899 H   0  0  0  0  0  0  0  0  0  0  0  0
   -0.1645   70.9743   32.5167 H   0  0  0  0  0  0  0  0  0  0  0  0
    0.2285   71.2284   35.7916 H   0  0  0  0  0  0  0  0  0  0  0  0
    1.2477   71.5773   34.5645 H   0  0  0  0  0  0  0  0  0  0  0  0
    2.0074   70.3829   36.7699 H   0  0  0  0  0  0  0  0  0  0  0  0
    2.8299   70.2771   35.3631 H   0  0  0  0  0  0  0  0  0  0  0  0
    1.2528   67.2598   34.4834 H   0  0  0  0  0  0  0  0  0  0  0  0
    2.6739   68.0029   34.1754 H   0  0  0  0  0  0  0  0  0  0  0  0
    0.5238   68.5219   32.8187 H   0  0  0  0  0  0  0  0  0  0  0  0
    1.7105   69.6262   33.0157 H   0  0  0  0  0  0  0  0  0  0  0  0
   -0.9320   68.2831   32.2606 H   0  0  0  0  0  0  0  0  0  0  0  0
  1  2  2  0  0  0  0
  2  3  1  0  0  0  0
  3  4  1  0  0  0  0
  4  5  2  0  0  0  0
  5  6  1  0  0  0  0
  6  7  2  0  0  0  0
  7  8  1  0  0  0  0
  8  9  1  0  0  0  0
  9 10  1  0  0  0  0
  9 11  1  0  0  0  0
  9 12  1  0  0  0  0
  7 13  1  0  0  0  0
 13 14  2  0  0  0  0
  2 15  1  0  0  0  0
 15 16  2  0  0  0  0
 16 17  1  0  0  0  0
 17 18  2  0  0  0  0
 18 19  1  0  0  0  0
 19 20  1  0  0  0  0
 20 21  1  0  0  0  0
 21 22  1  0  0  0  0
 22 23  1  0  0  0  0
 23 24  1  0  0  0  0
 24 25  1  0  0  0  0
 25 26  1  0  0  0  0
 19 27  2  0  0  0  0
 14  4  1  0  0  0  0
 27 15  1  0  0  0  0
 26 21  1  0  0  0  0
  3 28  1  0  0  0  0
  5 29  1  0  0  0  0
  6 30  1  0  0  0  0
 13 31  1  0  0  0  0
 14 32  1  0  0  0  0
 16 33  1  0  0  0  0
 17 34  1  0  0  0  0
 18 35  1  0  0  0  0
 20 36  1  0  0  0  0
 20 37  1  0  0  0  0
 27 46  1  0  0  0  0
 22 38  1  0  0  0  0
 22 39  1  0  0  0  0
 23 40  1  0  0  0  0
 23 41  1  0  0  0  0
 25 42  1  0  0  0  0
 25 43  1  0  0  0  0
 26 44  1  0  0  0  0
 26 45  1  0  0  0  0
M  END
> <BIOSOLVEIT.HYDE_ESTIMATED_AFFINITY_LOWER_BOUNDARY [nM]>
71623427.837557

> <BIOSOLVEIT.HYDE_ESTIMATED_AFFINITY_UPPER_BOUNDARY [nM]>
7116211026.880636

> <BIOSOLVEIT.HYDE_LIGAND_EFFICIENCY range: ++, +, 0, -, -->
--

> <BIOSOLVEIT.HYDE_LIGAND_LIPOPHILIC_EFFICIENCY range: ++, +, 0, -, -->
--

> <BIOSOLVEIT.INTER_CLASH range: red, yellow, green>
green

> <BIOSOLVEIT.INTRA_CLASH range: red, yellow, green>
green

> <BIOSOLVEIT.LOGP>
3.6697

> <BIOSOLVEIT.MOLECULAR WEIGHT>
380.364

> <BIOSOLVEIT.MOLECULE_CHECKSUM>
LTAuODM1MzU2OzAuMDMwOTM5MQ==

> <BIOSOLVEIT.TORSION_QUALITY range: red, yellow, green, not rotatable>
yellow

> <BIOSOLVEIT.TPSA>
50.8

$$$$
6HD6_FYH_3
foHydescor03222115273D 1   1.00000     0.00000     0
Hydescorer 1.1.0 fol007
 47 49  0  0  0  0            999 V2000
   -3.3442   67.1748   30.5009 O   0  0  0  0  0  0  0  0  0  0  0  0
   -2.5388   67.1634   31.4725 C   0  0  0  0  0  0  0  0  0  0  0  0
   -1.9203   65.9277   31.8699 N   0  0  0  0  0  0  0  0  0  0  0  0
   -2.5374   64.6382   31.7108 C   0  0  0  0  0  0  0  0  0  0  0  0
   -3.8405   64.5547   31.2304 C   0  0  0  0  0  0  0  0  0  0  0  0
   -4.4455   63.3115   31.0732 C   0  0  0  0  0  0  0  0  0  0  0  0
   -3.7329   62.1631   31.4020 C   0  0  0  0  0  0  0  0  0  0  0  0
   -4.3086   60.9516   31.2548 O   0  0  0  0  0  0  0  0  0  0  0  0
   -3.6405   59.7692   30.8201 C   0  0  0  0  0  0  0  0  0  0  0  0
   -2.6181   59.4816   31.7034 F   0  0  0  0  0  0  0  0  0  0  0  0
   -3.1006   59.9622   29.5609 F   0  0  0  0  0  0  0  0  0  0  0  0
   -4.5226   58.7040   30.7969 F   0  0  0  0  0  0  0  0  0  0  0  0
   -2.4294   62.2372   31.8839 C   0  0  0  0  0  0  0  0  0  0  0  0
   -1.8323   63.4840   32.0375 C   0  0  0  0  0  0  0  0  0  0  0  0
   -2.2033   68.4358   32.1570 C   0  0  0  0  0  0  0  0  0  0  0  0
   -3.1958   69.1440   32.8268 C   0  0  0  0  0  0  0  0  0  0  0  0
   -2.8627   70.3356   33.4631 C   0  0  0  0  0  0  0  0  0  0  0  0
   -1.5594   70.8212   33.4365 C   0  0  0  0  0  0  0  0  0  0  0  0
   -0.5825   70.0963   32.7609 C   0  0  0  0  0  0  0  0  0  0  0  0
    0.8456   70.6172   32.7255 C   0  0  0  0  0  0  0  0  0  0  0  0
    1.6376   70.1397   33.8831 N   0  3  0  0  0  0  0  0  0  0  0  0
    1.0937   70.6811   35.1373 C   0  0  0  0  0  0  0  0  0  0  0  0
    1.9240   70.1997   36.3167 C   0  0  0  0  0  0  0  0  0  0  0  0
    1.9601   68.7800   36.3518 O   0  0  0  0  0  0  0  0  0  0  0  0
    2.4833   68.2291   35.1507 C   0  0  0  0  0  0  0  0  0  0  0  0
    1.6638   68.6701   33.9476 C   0  0  0  0  0  0  0  0  0  0  0  0
   -0.8936   68.9026   32.1178 C   0  0  0  0  0  0  0  0  0  0  0  0
   -1.0093   65.9670   32.2803 H   0  0  0  0  0  0  0  0  0  0  0  0
   -4.3422   65.3880   30.9982 H   0  0  0  0  0  0  0  0  0  0  0  0
   -5.3816   63.2445   30.7278 H   0  0  0  0  0  0  0  0  0  0  0  0
   -1.9280   61.4039   32.1169 H   0  0  0  0  0  0  0  0  0  0  0  0
   -0.8961   63.5509   32.3828 H   0  0  0  0  0  0  0  0  0  0  0  0
   -4.1351   68.8016   32.8506 H   0  0  0  0  0  0  0  0  0  0  0  0
   -3.5706   70.8505   33.9466 H   0  0  0  0  0  0  0  0  0  0  0  0
   -1.3280   71.6786   33.8961 H   0  0  0  0  0  0  0  0  0  0  0  0
    0.8253   71.6169   32.7382 H   0  0  0  0  0  0  0  0  0  0  0  0
    1.2833   70.3032   31.8829 H   0  0  0  0  0  0  0  0  0  0  0  0
    2.5767   70.4674   33.7793 H   0  0  0  0  0  0  0  0  0  0  0  0
    0.1494   70.3718   35.2493 H   0  0  0  0  0  0  0  0  0  0  0  0
    1.1155   71.6803   35.1033 H   0  0  0  0  0  0  0  0  0  0  0  0
    1.5187   70.5398   37.1653 H   0  0  0  0  0  0  0  0  0  0  0  0
    2.8561   70.5506   36.2283 H   0  0  0  0  0  0  0  0  0  0  0  0
    2.4631   67.2313   35.2124 H   0  0  0  0  0  0  0  0  0  0  0  0
    3.4277   68.5367   35.0339 H   0  0  0  0  0  0  0  0  0  0  0  0
    0.7297   68.3238   34.0357 H   0  0  0  0  0  0  0  0  0  0  0  0
    2.0764   68.3072   33.1122 H   0  0  0  0  0  0  0  0  0  0  0  0
   -0.1858   68.3876   31.6342 H   0  0  0  0  0  0  0  0  0  0  0  0
  1  2  2  0  0  0  0
  2  3  1  0  0  0  0
  3  4  1  0  0  0  0
  4  5  2  0  0  0  0
  5  6  1  0  0  0  0
  6  7  2  0  0  0  0
  7  8  1  0  0  0  0
  8  9  1  0  0  0  0
  9 10  1  0  0  0  0
  9 11  1  0  0  0  0
  9 12  1  0  0  0  0
  7 13  1  0  0  0  0
 13 14  2  0  0  0  0
  2 15  1  0  0  0  0
 15 16  2  0  0  0  0
 16 17  1  0  0  0  0
 17 18  2  0  0  0  0
 18 19  1  0  0  0  0
 19 20  1  0  0  0  0
 20 21  1  0  0  0  0
 21 22  1  0  0  0  0
 22 23  1  0  0  0  0
 23 24  1  0  0  0  0
 24 25  1  0  0  0  0
 25 26  1  0  0  0  0
 19 27  2  0  0  0  0
 14  4  1  0  0  0  0
 27 15  1  0  0  0  0
 26 21  1  0  0  0  0
  3 28  1  0  0  0  0
  5 29  1  0  0  0  0
  6 30  1  0  0  0  0
 13 31  1  0  0  0  0
 14 32  1  0  0  0  0
 16 33  1  0  0  0  0
 17 34  1  0  0  0  0
 18 35  1  0  0  0  0
 20 36  1  0  0  0  0
 20 37  1  0  0  0  0
 21 38  1  0  0  0  0
 22 39  1  0  0  0  0
 22 40  1  0  0  0  0
 23 41  1  0  0  0  0
 23 42  1  0  0  0  0
 25 43  1  0  0  0  0
 25 44  1  0  0  0  0
 26 45  1  0  0  0  0
 26 46  1  0  0  0  0
 27 47  1  0  0  0  0
M  CHG  1  21   1
M  END
> <BIOSOLVEIT.HYDE_ESTIMATED_AFFINITY_LOWER_BOUNDARY [nM]>
441.855480

> <BIOSOLVEIT.HYDE_ESTIMATED_AFFINITY_UPPER_BOUNDARY [nM]>
43900.954442

> <BIOSOLVEIT.HYDE_LIGAND_EFFICIENCY range: ++, +, 0, -, -->
-

> <BIOSOLVEIT.HYDE_LIGAND_LIPOPHILIC_EFFICIENCY range: ++, +, 0, -, -->
-

> <BIOSOLVEIT.INTER_CLASH range: red, yellow, green>
green

> <BIOSOLVEIT.INTRA_CLASH range: red, yellow, green>
yellow

> <BIOSOLVEIT.LOGP>
2.2526

> <BIOSOLVEIT.MOLECULAR WEIGHT>
381.372

> <BIOSOLVEIT.MOLECULE_CHECKSUM>
LTMwLjU3Mjg7MS4xMzIzMw==

> <BIOSOLVEIT.TORSION_QUALITY range: red, yellow, green, not rotatable>
red

> <BIOSOLVEIT.TPSA>
52

$$$$
3MS9_MS9_1
foHydescor03222115273D 1   1.00000     0.00000     0
Hydescorer 1.1.0 fol007
 20 20  0  0  0  0            999 V2000
   -4.0243   67.8083   32.2204 C   0  0  0  0  0  0  0  0  0  0  0  0
   -3.5655   66.4621   32.2362 O   0  0  0  0  0  0  0  0  0  0  0  0
   -4.1727   65.4484   31.4877 C   0  0  0  0  0  0  0  0  0  0  0  0
   -5.1603   65.7141   30.7480 O   0  0  0  0  0  0  0  0  0  0  0  0
   -3.6352   64.1018   31.5131 C   0  0  0  0  0  0  0  0  0  0  0  0
   -4.3562   63.0854   30.8942 C   0  0  0  0  0  0  0  0  0  0  0  0
   -3.8679   61.7828   30.9004 C   0  0  0  0  0  0  0  0  0  0  0  0
   -2.6573   61.5089   31.5291 C   0  0  0  0  0  0  0  0  0  0  0  0
   -2.0278   59.8436   31.5403 Cl  0  0  0  0  0  0  0  0  0  0  0  0
   -1.9314   62.5203   32.1499 C   0  0  0  0  0  0  0  0  0  0  0  0
   -2.4247   63.8212   32.1401 C   0  0  0  0  0  0  0  0  0  0  0  0
   -1.6803   64.8261   32.7698 N   0  0  0  0  0  0  0  0  0  0  0  0
   -3.4505   68.3631   32.8228 H   0  0  0  0  0  0  0  0  0  0  0  0
   -3.9733   68.1669   31.2883 H   0  0  0  0  0  0  0  0  0  0  0  0
   -4.9717   67.8414   32.5388 H   0  0  0  0  0  0  0  0  0  0  0  0
   -5.2255   63.2913   30.4449 H   0  0  0  0  0  0  0  0  0  0  0  0
   -4.3827   61.0494   30.4565 H   0  0  0  0  0  0  0  0  0  0  0  0
   -1.0622   62.3141   32.5993 H   0  0  0  0  0  0  0  0  0  0  0  0
   -2.1475   65.5911   33.2131 H   0  0  0  0  0  0  0  0  0  0  0  0
   -0.6815   64.7788   32.7762 H   0  0  0  0  0  0  0  0  0  0  0  0
  1  2  1  0  0  0  0
  2  3  1  0  0  0  0
  3  4  2  0  0  0  0
  3  5  1  0  0  0  0
  5  6  2  0  0  0  0
  6  7  1  0  0  0  0
  7  8  2  0  0  0  0
  8  9  1  0  0  0  0
  8 10  1  0  0  0  0
 10 11  2  0  0  0  0
 11 12  1  0  0  0  0
 11  5  1  0  0  0  0
  1 13  1  0  0  0  0
  1 14  1  0  0  0  0
  1 15  1  0  0  0  0
  6 16  1  0  0  0  0
  7 17  1  0  0  0  0
 10 18  1  0  0  0  0
 12 19  1  0  0  0  0
 12 20  1  0  0  0  0
M  END
> <BIOSOLVEIT.HYDE_ESTIMATED_AFFINITY_LOWER_BOUNDARY [nM]>
24303.084224

> <BIOSOLVEIT.HYDE_ESTIMATED_AFFINITY_UPPER_BOUNDARY [nM]>
2414655.108882

> <BIOSOLVEIT.HYDE_LIGAND_EFFICIENCY range: ++, +, 0, -, -->
+

> <BIOSOLVEIT.HYDE_LIGAND_LIPOPHILIC_EFFICIENCY range: ++, +, 0, -, -->
--

> <BIOSOLVEIT.INTER_CLASH range: red, yellow, green>
green

> <BIOSOLVEIT.INTRA_CLASH range: red, yellow, green>
green

> <BIOSOLVEIT.LOGP>
1.7088

> <BIOSOLVEIT.MOLECULAR WEIGHT>
185.609

> <BIOSOLVEIT.MOLECULE_CHECKSUM>
LTIwLjYzODc7MS43MTk4OQ==

> <BIOSOLVEIT.TORSION_QUALITY range: red, yellow, green, not rotatable>
green

> <BIOSOLVEIT.TPSA>
52.32

$$$$
3MS9_MS9_2
foHydescor03222115273D 1   1.00000     0.00000     0
Hydescorer 1.1.0 fol007
 20 20  0  0  0  0            999 V2000
   -6.2045   66.5445   30.5806 C   0  0  0  0  0  0  0  0  0  0  0  0
   -4.9527   65.9136   30.3403 O   0  0  0  0  0  0  0  0  0  0  0  0
   -4.0901   65.5298   31.3721 C   0  0  0  0  0  0  0  0  0  0  0  0
   -3.7722   66.3570   32.2710 O   0  0  0  0  0  0  0  0  0  0  0  0
   -3.6042   64.1655   31.4465 C   0  0  0  0  0  0  0  0  0  0  0  0
   -4.3349   63.1632   30.8160 C   0  0  0  0  0  0  0  0  0  0  0  0
   -3.8957   61.8442   30.8682 C   0  0  0  0  0  0  0  0  0  0  0  0
   -2.7244   61.5398   31.5544 C   0  0  0  0  0  0  0  0  0  0  0  0
   -2.1577   59.8535   31.6249 Cl  0  0  0  0  0  0  0  0  0  0  0  0
   -1.9890   62.5370   32.1872 C   0  0  0  0  0  0  0  0  0  0  0  0
   -2.4331   63.8542   32.1313 C   0  0  0  0  0  0  0  0  0  0  0  0
   -1.6799   64.8444   32.7738 N   0  0  0  0  0  0  0  0  0  0  0  0
   -6.6564   66.7315   29.7083 H   0  0  0  0  0  0  0  0  0  0  0  0
   -6.7812   65.9419   31.1322 H   0  0  0  0  0  0  0  0  0  0  0  0
   -6.0563   67.4038   31.0701 H   0  0  0  0  0  0  0  0  0  0  0  0
   -5.1759   63.3910   30.3253 H   0  0  0  0  0  0  0  0  0  0  0  0
   -4.4176   61.1208   30.4162 H   0  0  0  0  0  0  0  0  0  0  0  0
   -1.1482   62.3088   32.6781 H   0  0  0  0  0  0  0  0  0  0  0  0
   -2.1406   65.6040   33.2328 H   0  0  0  0  0  0  0  0  0  0  0  0
   -0.6812   64.7920   32.7736 H   0  0  0  0  0  0  0  0  0  0  0  0
  1  2  1  0  0  0  0
  2  3  1  0  0  0  0
  3  4  2  0  0  0  0
  3  5  1  0  0  0  0
  5  6  2  0  0  0  0
  6  7  1  0  0  0  0
  7  8  2  0  0  0  0
  8  9  1  0  0  0  0
  8 10  1  0  0  0  0
 10 11  2  0  0  0  0
 11 12  1  0  0  0  0
 11  5  1  0  0  0  0
  1 13  1  0  0  0  0
  1 14  1  0  0  0  0
  1 15  1  0  0  0  0
  6 16  1  0  0  0  0
  7 17  1  0  0  0  0
 10 18  1  0  0  0  0
 12 19  1  0  0  0  0
 12 20  1  0  0  0  0
M  END
> <BIOSOLVEIT.HYDE_ESTIMATED_AFFINITY_LOWER_BOUNDARY [nM]>
25891.162606

> <BIOSOLVEIT.HYDE_ESTIMATED_AFFINITY_UPPER_BOUNDARY [nM]>
2572440.085566

> <BIOSOLVEIT.HYDE_LIGAND_EFFICIENCY range: ++, +, 0, -, -->
+

> <BIOSOLVEIT.HYDE_LIGAND_LIPOPHILIC_EFFICIENCY range: ++, +, 0, -, -->
--

> <BIOSOLVEIT.INTER_CLASH range: red, yellow, green>
green

> <BIOSOLVEIT.INTRA_CLASH range: red, yellow, green>
green

> <BIOSOLVEIT.LOGP>
1.7088

> <BIOSOLVEIT.MOLECULAR WEIGHT>
185.609

> <BIOSOLVEIT.MOLECULE_CHECKSUM>
LTIwLjQ4MTg7MS43MDY4MQ==

> <BIOSOLVEIT.TORSION_QUALITY range: red, yellow, green, not rotatable>
yellow

> <BIOSOLVEIT.TPSA>
52.32

$$$$
3MS9_MS9_3
foHydescor03222115273D 1   1.00000     0.00000     0
Hydescorer 1.1.0 fol007
 20 20  0  0  0  0            999 V2000
   -7.5073   59.4044   30.0580 C   0  0  0  0  0  0  0  0  0  0  0  0
   -6.0882   59.3096   30.0667 O   0  0  0  0  0  0  0  0  0  0  0  0
   -5.2700   60.2803   30.6538 C   0  0  0  0  0  0  0  0  0  0  0  0
   -5.7858   61.2875   31.2130 O   0  0  0  0  0  0  0  0  0  0  0  0
   -3.8306   60.1053   30.6739 C   0  0  0  0  0  0  0  0  0  0  0  0
   -3.2943   58.9381   30.1389 C   0  0  0  0  0  0  0  0  0  0  0  0
   -1.9174   58.7396   30.1426 C   0  0  0  0  0  0  0  0  0  0  0  0
   -1.0869   59.7155   30.6845 C   0  0  0  0  0  0  0  0  0  0  0  0
    0.6759   59.4666   30.6922 Cl  0  0  0  0  0  0  0  0  0  0  0  0
   -1.6164   60.8846   31.2212 C   0  0  0  0  0  0  0  0  0  0  0  0
   -2.9943   61.0776   31.2145 C   0  0  0  0  0  0  0  0  0  0  0  0
   -3.5091   62.2606   31.7587 N   0  0  0  0  0  0  0  0  0  0  0  0
   -7.8916   58.6089   29.5895 H   0  0  0  0  0  0  0  0  0  0  0  0
   -7.8452   59.4326   30.9988 H   0  0  0  0  0  0  0  0  0  0  0  0
   -7.7828   60.2382   29.5797 H   0  0  0  0  0  0  0  0  0  0  0  0
   -3.8987   58.2418   29.7518 H   0  0  0  0  0  0  0  0  0  0  0  0
   -1.5277   57.9024   29.7588 H   0  0  0  0  0  0  0  0  0  0  0  0
   -1.0117   61.5805   31.6086 H   0  0  0  0  0  0  0  0  0  0  0  0
   -4.4979   62.3835   31.8426 H   0  0  0  0  0  0  0  0  0  0  0  0
   -2.8878   62.9826   32.0635 H   0  0  0  0  0  0  0  0  0  0  0  0
  1  2  1  0  0  0  0
  2  3  1  0  0  0  0
  3  4  2  0  0  0  0
  3  5  1  0  0  0  0
  5  6  2  0  0  0  0
  6  7  1  0  0  0  0
  7  8  2  0  0  0  0
  8  9  1  0  0  0  0
  8 10  1  0  0  0  0
 10 11  2  0  0  0  0
 11 12  1  0  0  0  0
 11  5  1  0  0  0  0
  1 13  1  0  0  0  0
  1 14  1  0  0  0  0
  1 15  1  0  0  0  0
  6 16  1  0  0  0  0
  7 17  1  0  0  0  0
 10 18  1  0  0  0  0
 12 19  1  0  0  0  0
 12 20  1  0  0  0  0
M  END
> <BIOSOLVEIT.HYDE_ESTIMATED_AFFINITY_LOWER_BOUNDARY [nM]>
3333.159556

> <BIOSOLVEIT.HYDE_ESTIMATED_AFFINITY_UPPER_BOUNDARY [nM]>
331169.109056

> <BIOSOLVEIT.HYDE_LIGAND_EFFICIENCY range: ++, +, 0, -, -->
++

> <BIOSOLVEIT.HYDE_LIGAND_LIPOPHILIC_EFFICIENCY range: ++, +, 0, -, -->
-

> <BIOSOLVEIT.INTER_CLASH range: red, yellow, green>
green

> <BIOSOLVEIT.INTRA_CLASH range: red, yellow, green>
green

> <BIOSOLVEIT.LOGP>
1.7088

> <BIOSOLVEIT.MOLECULAR WEIGHT>
185.609

> <BIOSOLVEIT.MOLECULE_CHECKSUM>
LTI1LjU2MzY7Mi4xMzAz

> <BIOSOLVEIT.TORSION_QUALITY range: red, yellow, green, not rotatable>
green

> <BIOSOLVEIT.TPSA>
52.32

$$$$
3K5V_STJ_1
foHydescor03222115273D 1   1.00000     0.00000     0
Hydescorer 1.1.0 fol007
 40 42  0  0  0  0            999 V2000
    0.4550   67.8005   33.6723 N   0  0  0  0  0  0  0  0  0  0  0  0
    0.2841   68.8891   32.7604 C   0  0  0  0  0  0  0  0  0  0  0  0
    1.2735   69.6269   32.5021 O   0  0  0  0  0  0  0  0  0  0  0  0
   -1.0207   69.1554   32.1059 C   0  0  0  0  0  0  0  0  0  0  0  0
   -1.2969   70.4226   31.6030 C   0  0  0  0  0  0  0  0  0  0  0  0
   -2.5255   70.6536   30.9926 C   0  0  0  0  0  0  0  0  0  0  0  0
   -3.4715   69.6399   30.8812 C   0  0  0  0  0  0  0  0  0  0  0  0
   -3.1739   68.3799   31.3908 C   0  0  0  0  0  0  0  0  0  0  0  0
   -4.1528   67.3153   31.2797 C   0  0  0  0  0  0  0  0  0  0  0  0
   -3.7646   66.0076   31.5523 C   0  0  0  0  0  0  0  0  0  0  0  0
   -4.7112   64.9942   31.4427 C   0  0  0  0  0  0  0  0  0  0  0  0
   -4.3312   63.6736   31.7140 N   0  0  0  0  0  0  0  0  0  0  0  0
   -5.1794   62.5324   31.5012 C   0  0  0  0  0  0  0  0  0  0  0  0
   -4.7076   61.4545   30.7586 C   0  0  0  0  0  0  0  0  0  0  0  0
   -5.5214   60.3458   30.5476 C   0  0  0  0  0  0  0  0  0  0  0  0
   -6.8038   60.3326   31.0858 C   0  0  0  0  0  0  0  0  0  0  0  0
   -7.6032   59.2636   30.8878 O   0  0  0  0  0  0  0  0  0  0  0  0
   -8.4750   59.0820   29.7740 C   0  0  0  0  0  0  0  0  0  0  0  0
   -7.7496   59.0791   28.5960 F   0  0  0  0  0  0  0  0  0  0  0  0
   -9.1194   57.8669   29.9030 F   0  0  0  0  0  0  0  0  0  0  0  0
   -9.4235   60.0883   29.7417 F   0  0  0  0  0  0  0  0  0  0  0  0
   -7.2844   61.4064   31.8294 C   0  0  0  0  0  0  0  0  0  0  0  0
   -6.4639   62.5104   32.0356 C   0  0  0  0  0  0  0  0  0  0  0  0
   -5.9646   65.3069   31.0795 N   0  0  0  0  0  0  0  0  0  0  0  0
   -6.3243   66.5729   30.8200 C   0  0  0  0  0  0  0  0  0  0  0  0
   -5.4220   67.5605   30.9214 N   0  0  0  0  0  0  0  0  0  0  0  0
   -1.9516   68.1268   32.0051 C   0  0  0  0  0  0  0  0  0  0  0  0
   -0.3099   67.1865   33.8668 H   0  0  0  0  0  0  0  0  0  0  0  0
    1.3394   67.6534   34.1152 H   0  0  0  0  0  0  0  0  0  0  0  0
   -0.6222   71.1567   31.6792 H   0  0  0  0  0  0  0  0  0  0  0  0
   -2.7316   71.5619   30.6285 H   0  0  0  0  0  0  0  0  0  0  0  0
   -4.3525   69.8142   30.4413 H   0  0  0  0  0  0  0  0  0  0  0  0
   -2.8241   65.8002   31.8215 H   0  0  0  0  0  0  0  0  0  0  0  0
   -3.4134   63.5147   32.0781 H   0  0  0  0  0  0  0  0  0  0  0  0
   -3.7837   61.4766   30.3766 H   0  0  0  0  0  0  0  0  0  0  0  0
   -5.1882   59.5676   30.0152 H   0  0  0  0  0  0  0  0  0  0  0  0
   -8.2085   61.3845   32.2108 H   0  0  0  0  0  0  0  0  0  0  0  0
   -6.7972   63.2885   32.5681 H   0  0  0  0  0  0  0  0  0  0  0  0
   -7.2648   66.7804   30.5510 H   0  0  0  0  0  0  0  0  0  0  0  0
   -1.7453   67.2185   32.3691 H   0  0  0  0  0  0  0  0  0  0  0  0
  1  2  1  0  0  0  0
  2  3  2  0  0  0  0
  2  4  1  0  0  0  0
  4  5  2  0  0  0  0
  5  6  1  0  0  0  0
  6  7  2  0  0  0  0
  7  8  1  0  0  0  0
  8  9  1  0  0  0  0
  9 10  2  0  0  0  0
 10 11  1  0  0  0  0
 11 12  1  0  0  0  0
 12 13  1  0  0  0  0
 13 14  2  0  0  0  0
 14 15  1  0  0  0  0
 15 16  2  0  0  0  0
 16 17  1  0  0  0  0
 17 18  1  0  0  0  0
 18 19  1  0  0  0  0
 18 20  1  0  0  0  0
 18 21  1  0  0  0  0
 16 22  1  0  0  0  0
 22 23  2  0  0  0  0
 11 24  2  0  0  0  0
 24 25  1  0  0  0  0
 25 26  2  0  0  0  0
  8 27  2  0  0  0  0
 27  4  1  0  0  0  0
 26  9  1  0  0  0  0
 23 13  1  0  0  0  0
  1 28  1  0  0  0  0
  1 29  1  0  0  0  0
  5 30  1  0  0  0  0
  6 31  1  0  0  0  0
  7 32  1  0  0  0  0
 10 33  1  0  0  0  0
 12 34  1  0  0  0  0
 14 35  1  0  0  0  0
 15 36  1  0  0  0  0
 22 37  1  0  0  0  0
 23 38  1  0  0  0  0
 25 39  1  0  0  0  0
 27 40  1  0  0  0  0
M  END
> <BIOSOLVEIT.HYDE_ESTIMATED_AFFINITY_LOWER_BOUNDARY [nM]>
54711.168623

> <BIOSOLVEIT.HYDE_ESTIMATED_AFFINITY_UPPER_BOUNDARY [nM]>
5435878.080741

> <BIOSOLVEIT.HYDE_LIGAND_EFFICIENCY range: ++, +, 0, -, -->
--

> <BIOSOLVEIT.HYDE_LIGAND_LIPOPHILIC_EFFICIENCY range: ++, +, 0, -, -->
--

> <BIOSOLVEIT.INTER_CLASH range: red, yellow, green>
green

> <BIOSOLVEIT.INTRA_CLASH range: red, yellow, green>
green

> <BIOSOLVEIT.LOGP>
3.8847

> <BIOSOLVEIT.MOLECULAR WEIGHT>
374.321

> <BIOSOLVEIT.MOLECULE_CHECKSUM>
LTE4LjYyNzE7MC42ODk4OTM=

> <BIOSOLVEIT.TORSION_QUALITY range: red, yellow, green, not rotatable>
green

> <BIOSOLVEIT.TPSA>
90.13

$$$$
3K5V_STJ_2
foHydescor03222115273D 1   1.00000     0.00000     0
Hydescorer 1.1.0 fol007
 40 42  0  0  0  0            999 V2000
    0.4330   67.8462   33.2992 N   0  0  0  0  0  0  0  0  0  0  0  0
    0.1052   68.9658   32.4716 C   0  0  0  0  0  0  0  0  0  0  0  0
    1.0052   69.8069   32.2022 O   0  0  0  0  0  0  0  0  0  0  0  0
   -1.2585   69.1468   31.9157 C   0  0  0  0  0  0  0  0  0  0  0  0
   -1.6403   70.3842   31.4077 C   0  0  0  0  0  0  0  0  0  0  0  0
   -2.9230   70.5351   30.8905 C   0  0  0  0  0  0  0  0  0  0  0  0
   -3.8191   69.4713   30.8766 C   0  0  0  0  0  0  0  0  0  0  0  0
   -3.4159   68.2424   31.3896 C   0  0  0  0  0  0  0  0  0  0  0  0
   -4.3420   67.1260   31.3797 C   0  0  0  0  0  0  0  0  0  0  0  0
   -3.8522   65.8384   31.5724 C   0  0  0  0  0  0  0  0  0  0  0  0
   -4.7489   64.7750   31.5610 C   0  0  0  0  0  0  0  0  0  0  0  0
   -4.2666   63.4741   31.7532 N   0  0  0  0  0  0  0  0  0  0  0  0
   -4.9988   62.2856   31.4088 C   0  0  0  0  0  0  0  0  0  0  0  0
   -4.3760   61.2851   30.6693 C   0  0  0  0  0  0  0  0  0  0  0  0
   -5.0766   60.1312   30.3315 C   0  0  0  0  0  0  0  0  0  0  0  0
   -6.3990   59.9956   30.7409 C   0  0  0  0  0  0  0  0  0  0  0  0
   -7.0897   58.8819   30.4191 O   0  0  0  0  0  0  0  0  0  0  0  0
   -7.3914   57.8126   31.3129 C   0  0  0  0  0  0  0  0  0  0  0  0
   -8.1417   58.2784   32.3778 F   0  0  0  0  0  0  0  0  0  0  0  0
   -8.1242   56.8565   30.6366 F   0  0  0  0  0  0  0  0  0  0  0  0
   -6.2233   57.2338   31.7759 F   0  0  0  0  0  0  0  0  0  0  0  0
   -7.0303   60.9915   31.4803 C   0  0  0  0  0  0  0  0  0  0  0  0
   -6.3221   62.1413   31.8138 C   0  0  0  0  0  0  0  0  0  0  0  0
   -6.0533   65.0218   31.3657 N   0  0  0  0  0  0  0  0  0  0  0  0
   -6.5111   66.2693   31.1814 C   0  0  0  0  0  0  0  0  0  0  0  0
   -5.6580   67.3046   31.1897 N   0  0  0  0  0  0  0  0  0  0  0  0
   -2.1381   68.0692   31.9116 C   0  0  0  0  0  0  0  0  0  0  0  0
    0.5900   66.9488   32.8869 H   0  0  0  0  0  0  0  0  0  0  0  0
    0.5052   67.9609   34.2899 H   0  0  0  0  0  0  0  0  0  0  0  0
   -1.0021   71.1541   31.4142 H   0  0  0  0  0  0  0  0  0  0  0  0
   -3.2048   71.4215   30.5233 H   0  0  0  0  0  0  0  0  0  0  0  0
   -4.7394   69.5881   30.5034 H   0  0  0  0  0  0  0  0  0  0  0  0
   -2.8752   65.6804   31.7163 H   0  0  0  0  0  0  0  0  0  0  0  0
   -3.3571   63.3652   32.1545 H   0  0  0  0  0  0  0  0  0  0  0  0
   -3.4250   61.3951   30.3807 H   0  0  0  0  0  0  0  0  0  0  0  0
   -4.6347   59.4082   29.8006 H   0  0  0  0  0  0  0  0  0  0  0  0
   -7.9815   60.8817   31.7684 H   0  0  0  0  0  0  0  0  0  0  0  0
   -6.7641   62.8643   32.3448 H   0  0  0  0  0  0  0  0  0  0  0  0
   -7.4880   66.4275   31.0378 H   0  0  0  0  0  0  0  0  0  0  0  0
   -1.8560   67.1828   32.2786 H   0  0  0  0  0  0  0  0  0  0  0  0
  1  2  1  0  0  0  0
  2  3  2  0  0  0  0
  2  4  1  0  0  0  0
  4  5  2  0  0  0  0
  5  6  1  0  0  0  0
  6  7  2  0  0  0  0
  7  8  1  0  0  0  0
  8  9  1  0  0  0  0
  9 10  2  0  0  0  0
 10 11  1  0  0  0  0
 11 12  1  0  0  0  0
 12 13  1  0  0  0  0
 13 14  2  0  0  0  0
 14 15  1  0  0  0  0
 15 16  2  0  0  0  0
 16 17  1  0  0  0  0
 17 18  1  0  0  0  0
 18 19  1  0  0  0  0
 18 20  1  0  0  0  0
 18 21  1  0  0  0  0
 16 22  1  0  0  0  0
 22 23  2  0  0  0  0
 11 24  2  0  0  0  0
 24 25  1  0  0  0  0
 25 26  2  0  0  0  0
  8 27  2  0  0  0  0
 27  4  1  0  0  0  0
 26  9  1  0  0  0  0
 23 13  1  0  0  0  0
  1 28  1  0  0  0  0
  1 29  1  0  0  0  0
  5 30  1  0  0  0  0
  6 31  1  0  0  0  0
  7 32  1  0  0  0  0
 10 33  1  0  0  0  0
 12 34  1  0  0  0  0
 14 35  1  0  0  0  0
 15 36  1  0  0  0  0
 22 37  1  0  0  0  0
 23 38  1  0  0  0  0
 25 39  1  0  0  0  0
 27 40  1  0  0  0  0
M  END
> <BIOSOLVEIT.HYDE_ESTIMATED_AFFINITY_LOWER_BOUNDARY [nM]>
741891.507550

> <BIOSOLVEIT.HYDE_ESTIMATED_AFFINITY_UPPER_BOUNDARY [nM]>
73711307.684878

> <BIOSOLVEIT.HYDE_LIGAND_EFFICIENCY range: ++, +, 0, -, -->
--

> <BIOSOLVEIT.HYDE_LIGAND_LIPOPHILIC_EFFICIENCY range: ++, +, 0, -, -->
--

> <BIOSOLVEIT.INTER_CLASH range: red, yellow, green>
yellow

> <BIOSOLVEIT.INTRA_CLASH range: red, yellow, green>
green

> <BIOSOLVEIT.LOGP>
3.8847

> <BIOSOLVEIT.MOLECULAR WEIGHT>
374.321

> <BIOSOLVEIT.MOLECULE_CHECKSUM>
LTEyLjE2NDE7MC40NTA1MjM=

> <BIOSOLVEIT.TORSION_QUALITY range: red, yellow, green, not rotatable>
green

> <BIOSOLVEIT.TPSA>
90.13

$$$$
3K5V_STJ_3
foHydescor03222115273D 1   1.00000     0.00000     0
Hydescorer 1.1.0 fol007
 40 42  0  0  0  0            999 V2000
    0.4170   71.7842   27.9843 N   0  0  0  0  0  0  0  0  0  0  0  0
   -0.0887   72.6371   29.0151 C   0  0  0  0  0  0  0  0  0  0  0  0
    0.5695   73.6653   29.3310 O   0  0  0  0  0  0  0  0  0  0  0  0
   -1.3705   72.3462   29.7036 C   0  0  0  0  0  0  0  0  0  0  0  0
   -2.0597   73.3704   30.3449 C   0  0  0  0  0  0  0  0  0  0  0  0
   -3.2599   73.0788   30.9851 C   0  0  0  0  0  0  0  0  0  0  0  0
   -3.7729   71.7860   30.9905 C   0  0  0  0  0  0  0  0  0  0  0  0
   -3.0671   70.7770   30.3424 C   0  0  0  0  0  0  0  0  0  0  0  0
   -3.5929   69.4251   30.3413 C   0  0  0  0  0  0  0  0  0  0  0  0
   -3.0935   68.5038   31.2561 C   0  0  0  0  0  0  0  0  0  0  0  0
   -3.6046   67.2102   31.2464 C   0  0  0  0  0  0  0  0  0  0  0  0
   -3.1085   66.2739   32.1627 N   0  0  0  0  0  0  0  0  0  0  0  0
   -3.0710   64.8566   31.9242 C   0  0  0  0  0  0  0  0  0  0  0  0
   -1.9597   64.1215   32.3249 C   0  0  0  0  0  0  0  0  0  0  0  0
   -1.9147   62.7494   32.0983 C   0  0  0  0  0  0  0  0  0  0  0  0
   -2.9894   62.1295   31.4693 C   0  0  0  0  0  0  0  0  0  0  0  0
   -2.9576   60.7995   31.2431 O   0  0  0  0  0  0  0  0  0  0  0  0
   -1.7753   60.0078   31.1495 C   0  0  0  0  0  0  0  0  0  0  0  0
   -1.0567   60.0826   32.3293 F   0  0  0  0  0  0  0  0  0  0  0  0
   -2.1334   58.6921   30.9290 F   0  0  0  0  0  0  0  0  0  0  0  0
   -0.9941   60.4402   30.0929 F   0  0  0  0  0  0  0  0  0  0  0  0
   -4.1047   62.8568   31.0646 C   0  0  0  0  0  0  0  0  0  0  0  0
   -4.1413   64.2279   31.2954 C   0  0  0  0  0  0  0  0  0  0  0  0
   -4.5597   66.8911   30.3596 N   0  0  0  0  0  0  0  0  0  0  0  0
   -5.0317   67.7906   29.4834 C   0  0  0  0  0  0  0  0  0  0  0  0
   -4.5481   69.0419   29.4809 N   0  0  0  0  0  0  0  0  0  0  0  0
   -1.8650   71.0462   29.6961 C   0  0  0  0  0  0  0  0  0  0  0  0
   -0.2159   71.2712   27.4045 H   0  0  0  0  0  0  0  0  0  0  0  0
    1.4035   71.7009   27.8434 H   0  0  0  0  0  0  0  0  0  0  0  0
   -1.6977   74.3026   30.3457 H   0  0  0  0  0  0  0  0  0  0  0  0
   -3.7613   73.8096   31.4483 H   0  0  0  0  0  0  0  0  0  0  0  0
   -4.6362   71.5845   31.4533 H   0  0  0  0  0  0  0  0  0  0  0  0
   -2.3815   68.7662   31.9074 H   0  0  0  0  0  0  0  0  0  0  0  0
   -2.7590   66.6122   33.0365 H   0  0  0  0  0  0  0  0  0  0  0  0
   -1.1935   64.5793   32.7757 H   0  0  0  0  0  0  0  0  0  0  0  0
   -1.1191   62.2152   32.3843 H   0  0  0  0  0  0  0  0  0  0  0  0
   -4.8707   62.3991   30.6132 H   0  0  0  0  0  0  0  0  0  0  0  0
   -4.9370   64.7620   31.0095 H   0  0  0  0  0  0  0  0  0  0  0  0
   -5.7439   67.5284   28.8322 H   0  0  0  0  0  0  0  0  0  0  0  0
   -1.3636   70.3155   29.2327 H   0  0  0  0  0  0  0  0  0  0  0  0
  1  2  1  0  0  0  0
  2  3  2  0  0  0  0
  2  4  1  0  0  0  0
  4  5  2  0  0  0  0
  5  6  1  0  0  0  0
  6  7  2  0  0  0  0
  7  8  1  0  0  0  0
  8  9  1  0  0  0  0
  9 10  2  0  0  0  0
 10 11  1  0  0  0  0
 11 12  1  0  0  0  0
 12 13  1  0  0  0  0
 13 14  2  0  0  0  0
 14 15  1  0  0  0  0
 15 16  2  0  0  0  0
 16 17  1  0  0  0  0
 17 18  1  0  0  0  0
 18 19  1  0  0  0  0
 18 20  1  0  0  0  0
 18 21  1  0  0  0  0
 16 22  1  0  0  0  0
 22 23  2  0  0  0  0
 11 24  2  0  0  0  0
 24 25  1  0  0  0  0
 25 26  2  0  0  0  0
  8 27  2  0  0  0  0
 27  4  1  0  0  0  0
 26  9  1  0  0  0  0
 23 13  1  0  0  0  0
  1 28  1  0  0  0  0
  1 29  1  0  0  0  0
  5 30  1  0  0  0  0
  6 31  1  0  0  0  0
  7 32  1  0  0  0  0
 10 33  1  0  0  0  0
 12 34  1  0  0  0  0
 14 35  1  0  0  0  0
 15 36  1  0  0  0  0
 22 37  1  0  0  0  0
 23 38  1  0  0  0  0
 25 39  1  0  0  0  0
 27 40  1  0  0  0  0
M  END
> <BIOSOLVEIT.HYDE_ESTIMATED_AFFINITY_LOWER_BOUNDARY [nM]>
1605.841841

> <BIOSOLVEIT.HYDE_ESTIMATED_AFFINITY_UPPER_BOUNDARY [nM]>
159549.881435

> <BIOSOLVEIT.HYDE_LIGAND_EFFICIENCY range: ++, +, 0, -, -->
-

> <BIOSOLVEIT.HYDE_LIGAND_LIPOPHILIC_EFFICIENCY range: ++, +, 0, -, -->
--

> <BIOSOLVEIT.INTER_CLASH range: red, yellow, green>
green

> <BIOSOLVEIT.INTRA_CLASH range: red, yellow, green>
yellow

> <BIOSOLVEIT.LOGP>
3.8847

> <BIOSOLVEIT.MOLECULAR WEIGHT>
374.321

> <BIOSOLVEIT.MOLECULE_CHECKSUM>
LTI3LjM3Mzk7MS4wMTM4NQ==

> <BIOSOLVEIT.TORSION_QUALITY range: red, yellow, green, not rotatable>
red

> <BIOSOLVEIT.TPSA>
90.13

$$$$
