1FPU_PRC_1
foHydescor03192112293D 1   1.00000     0.00000     0
Hydescorer 1.1.0 fol007
 47 50  0  0  0  0            999 V2000
   24.1930   43.5784   53.9605 C   0  0  0  0  0  0  0  0  0  0  0  0
   23.0796   43.7851   54.9747 C   0  0  0  0  0  0  0  0  0  0  0  0
   23.3816   44.4049   56.1827 C   0  0  0  0  0  0  0  0  0  0  0  0
   22.3825   44.6075   57.1294 C   0  0  0  0  0  0  0  0  0  0  0  0
   21.0862   44.1851   56.8539 C   0  0  0  0  0  0  0  0  0  0  0  0
   20.0461   44.3895   57.8255 N   0  0  0  0  0  0  0  0  0  0  0  0
   19.9568   43.6668   59.0685 C   0  0  0  0  0  0  0  0  0  0  0  0
   20.8252   42.7966   59.3536 O   0  0  0  0  0  0  0  0  0  0  0  0
   18.8631   43.9289   60.0356 C   0  0  0  0  0  0  0  0  0  0  0  0
   19.1180   43.8304   61.3992 C   0  0  0  0  0  0  0  0  0  0  0  0
   18.0903   44.0777   62.3026 C   0  0  0  0  0  0  0  0  0  0  0  0
   16.8348   44.4174   61.8098 C   0  0  0  0  0  0  0  0  0  0  0  0
   16.6135   44.5061   60.4899 N   0  0  0  0  0  0  0  0  0  0  0  0
   17.5882   44.2726   59.5981 C   0  0  0  0  0  0  0  0  0  0  0  0
   20.7763   43.5645   55.6481 C   0  0  0  0  0  0  0  0  0  0  0  0
   21.7806   43.3650   54.7061 C   0  0  0  0  0  0  0  0  0  0  0  0
   21.4841   42.7420   53.4877 N   0  0  0  0  0  0  0  0  0  0  0  0
   20.1514   42.5779   52.9837 C   0  0  0  0  0  0  0  0  0  0  0  0
   19.2863   43.5967   53.0956 N   0  0  0  0  0  0  0  0  0  0  0  0
   18.0279   43.4996   52.6425 C   0  0  0  0  0  0  0  0  0  0  0  0
   17.6046   42.3185   52.0419 C   0  0  0  0  0  0  0  0  0  0  0  0
   18.5085   41.2676   51.9304 C   0  0  0  0  0  0  0  0  0  0  0  0
   18.0747   40.0311   51.3049 C   0  0  0  0  0  0  0  0  0  0  0  0
   17.1378   39.2306   51.9498 C   0  0  0  0  0  0  0  0  0  0  0  0
   16.7243   38.0477   51.3471 C   0  0  0  0  0  0  0  0  0  0  0  0
   17.2641   37.7025   50.1127 C   0  0  0  0  0  0  0  0  0  0  0  0
   18.1665   38.4911   49.5105 N   0  0  0  0  0  0  0  0  0  0  0  0
   18.5816   39.6371   50.0709 C   0  0  0  0  0  0  0  0  0  0  0  0
   19.7537   41.4328   52.4058 N   0  0  0  0  0  0  0  0  0  0  0  0
   23.8248   43.1242   53.1493 H   0  0  0  0  0  0  0  0  0  0  0  0
   24.5764   44.4648   53.7011 H   0  0  0  0  0  0  0  0  0  0  0  0
   24.9102   43.0102   54.3640 H   0  0  0  0  0  0  0  0  0  0  0  0
   24.3169   44.7049   56.3707 H   0  0  0  0  0  0  0  0  0  0  0  0
   22.5943   45.0525   57.9995 H   0  0  0  0  0  0  0  0  0  0  0  0
   19.3437   45.0730   57.6267 H   0  0  0  0  0  0  0  0  0  0  0  0
   20.0303   43.5843   61.7265 H   0  0  0  0  0  0  0  0  0  0  0  0
   18.2508   44.0127   63.2876 H   0  0  0  0  0  0  0  0  0  0  0  0
   16.0867   44.5981   62.4484 H   0  0  0  0  0  0  0  0  0  0  0  0
   17.3982   44.3456   58.6190 H   0  0  0  0  0  0  0  0  0  0  0  0
   19.8409   43.2648   55.4602 H   0  0  0  0  0  0  0  0  0  0  0  0
   22.2432   42.3921   52.9388 H   0  0  0  0  0  0  0  0  0  0  0  0
   17.3982   44.2709   52.7358 H   0  0  0  0  0  0  0  0  0  0  0  0
   16.6702   42.2270   51.6976 H   0  0  0  0  0  0  0  0  0  0  0  0
   16.7657   39.5027   52.8371 H   0  0  0  0  0  0  0  0  0  0  0  0
   16.0517   37.4568   51.7926 H   0  0  0  0  0  0  0  0  0  0  0  0
   16.9755   36.8546   49.6680 H   0  0  0  0  0  0  0  0  0  0  0  0
   19.2552   40.2080   49.6016 H   0  0  0  0  0  0  0  0  0  0  0  0
  1  2  1  0  0  0  0
  2  3  2  0  0  0  0
  3  4  1  0  0  0  0
  4  5  2  0  0  0  0
  5  6  1  0  0  0  0
  6  7  1  0  0  0  0
  7  8  2  0  0  0  0
  7  9  1  0  0  0  0
  9 10  2  0  0  0  0
 10 11  1  0  0  0  0
 11 12  2  0  0  0  0
 12 13  1  0  0  0  0
 13 14  2  0  0  0  0
  5 15  1  0  0  0  0
 15 16  2  0  0  0  0
 16 17  1  0  0  0  0
 17 18  1  0  0  0  0
 18 19  2  0  0  0  0
 19 20  1  0  0  0  0
 20 21  2  0  0  0  0
 21 22  1  0  0  0  0
 22 23  1  0  0  0  0
 23 24  2  0  0  0  0
 24 25  1  0  0  0  0
 25 26  2  0  0  0  0
 26 27  1  0  0  0  0
 27 28  2  0  0  0  0
 22 29  2  0  0  0  0
 16  2  1  0  0  0  0
 29 18  1  0  0  0  0
 14  9  1  0  0  0  0
 28 23  1  0  0  0  0
  1 30  1  0  0  0  0
  1 31  1  0  0  0  0
  1 32  1  0  0  0  0
  3 33  1  0  0  0  0
  4 34  1  0  0  0  0
  6 35  1  0  0  0  0
 10 36  1  0  0  0  0
 11 37  1  0  0  0  0
 12 38  1  0  0  0  0
 14 39  1  0  0  0  0
 15 40  1  0  0  0  0
 17 41  1  0  0  0  0
 20 42  1  0  0  0  0
 21 43  1  0  0  0  0
 24 44  1  0  0  0  0
 25 45  1  0  0  0  0
 26 46  1  0  0  0  0
 28 47  1  0  0  0  0
M  END
> <BIOSOLVEIT.HYDE_ESTIMATED_AFFINITY_LOWER_BOUNDARY [nM]>
543946.050580

> <BIOSOLVEIT.HYDE_ESTIMATED_AFFINITY_UPPER_BOUNDARY [nM]>
54044256.188662

> <BIOSOLVEIT.HYDE_LIGAND_EFFICIENCY range: ++, +, 0, -, -->
--

> <BIOSOLVEIT.HYDE_LIGAND_LIPOPHILIC_EFFICIENCY range: ++, +, 0, -, -->
--

> <BIOSOLVEIT.INTER_CLASH range: red, yellow, green>
green

> <BIOSOLVEIT.INTRA_CLASH range: red, yellow, green>
green

> <BIOSOLVEIT.LOGP>
4.23792

> <BIOSOLVEIT.MOLECULAR WEIGHT>
382.425

> <BIOSOLVEIT.MOLECULE_CHECKSUM>
LTEyLjkzMzU7MC40NDU5ODI=

> <BIOSOLVEIT.TORSION_QUALITY range: red, yellow, green, not rotatable>
red

> <BIOSOLVEIT.TPSA>
92.69

$$$$
1FPU_PRC_2
foHydescor03192112293D 1   1.00000     0.00000     0
Hydescorer 1.1.0 fol007
 47 50  0  0  0  0            999 V2000
   23.7583   43.3461   53.3739 C   0  0  0  0  0  0  0  0  0  0  0  0
   22.7018   43.5531   54.4469 C   0  0  0  0  0  0  0  0  0  0  0  0
   23.0718   44.1618   55.6415 C   0  0  0  0  0  0  0  0  0  0  0  0
   22.1257   44.3646   56.6412 C   0  0  0  0  0  0  0  0  0  0  0  0
   20.8135   43.9536   56.4316 C   0  0  0  0  0  0  0  0  0  0  0  0
   19.8276   44.1582   57.4583 N   0  0  0  0  0  0  0  0  0  0  0  0
   19.8442   43.4843   58.7314 C   0  0  0  0  0  0  0  0  0  0  0  0
   20.7628   42.6600   58.9946 O   0  0  0  0  0  0  0  0  0  0  0  0
   18.8025   43.7444   59.7547 C   0  0  0  0  0  0  0  0  0  0  0  0
   19.1142   43.5931   61.1016 C   0  0  0  0  0  0  0  0  0  0  0  0
   18.1351   43.8387   62.0579 C   0  0  0  0  0  0  0  0  0  0  0  0
   16.8696   44.2296   61.6334 C   0  0  0  0  0  0  0  0  0  0  0  0
   16.5931   44.3686   60.3283 N   0  0  0  0  0  0  0  0  0  0  0  0
   17.5201   44.1380   59.3865 C   0  0  0  0  0  0  0  0  0  0  0  0
   20.4356   43.3443   55.2395 C   0  0  0  0  0  0  0  0  0  0  0  0
   21.3871   43.1446   54.2444 C   0  0  0  0  0  0  0  0  0  0  0  0
   21.0220   42.5329   53.0391 N   0  0  0  0  0  0  0  0  0  0  0  0
   19.6631   42.2739   52.6600 C   0  0  0  0  0  0  0  0  0  0  0  0
   18.6999   43.0970   53.0995 N   0  0  0  0  0  0  0  0  0  0  0  0
   17.4125   42.9035   52.7772 C   0  0  0  0  0  0  0  0  0  0  0  0
   17.0626   41.8269   51.9689 C   0  0  0  0  0  0  0  0  0  0  0  0
   18.0683   40.9786   51.5181 C   0  0  0  0  0  0  0  0  0  0  0  0
   17.7115   39.8523   50.6742 C   0  0  0  0  0  0  0  0  0  0  0  0
   17.0820   40.0831   49.4556 C   0  0  0  0  0  0  0  0  0  0  0  0
   16.7429   39.0019   48.6498 C   0  0  0  0  0  0  0  0  0  0  0  0
   17.0460   37.7183   49.0916 C   0  0  0  0  0  0  0  0  0  0  0  0
   17.6535   37.5211   50.2711 N   0  0  0  0  0  0  0  0  0  0  0  0
   17.9912   38.5473   51.0664 C   0  0  0  0  0  0  0  0  0  0  0  0
   19.3369   41.2311   51.8793 N   0  0  0  0  0  0  0  0  0  0  0  0
   23.3444   42.9005   52.5801 H   0  0  0  0  0  0  0  0  0  0  0  0
   24.1341   44.2316   53.1008 H   0  0  0  0  0  0  0  0  0  0  0  0
   24.4916   42.7699   53.7349 H   0  0  0  0  0  0  0  0  0  0  0  0
   24.0179   44.4537   55.7818 H   0  0  0  0  0  0  0  0  0  0  0  0
   22.3866   44.8015   57.5021 H   0  0  0  0  0  0  0  0  0  0  0  0
   19.0873   44.8059   57.2780 H   0  0  0  0  0  0  0  0  0  0  0  0
   20.0325   43.3107   61.3793 H   0  0  0  0  0  0  0  0  0  0  0  0
   18.3369   43.7362   63.0320 H   0  0  0  0  0  0  0  0  0  0  0  0
   16.1562   44.4096   62.3106 H   0  0  0  0  0  0  0  0  0  0  0  0
   17.2893   44.2490   58.4199 H   0  0  0  0  0  0  0  0  0  0  0  0
   19.4894   43.0526   55.0992 H   0  0  0  0  0  0  0  0  0  0  0  0
   21.7485   42.2616   52.4077 H   0  0  0  0  0  0  0  0  0  0  0  0
   16.7092   43.5287   53.1155 H   0  0  0  0  0  0  0  0  0  0  0  0
   16.1082   41.6663   51.7173 H   0  0  0  0  0  0  0  0  0  0  0  0
   16.8756   41.0165   49.1622 H   0  0  0  0  0  0  0  0  0  0  0  0
   16.2899   39.1443   47.7698 H   0  0  0  0  0  0  0  0  0  0  0  0
   16.8078   36.9317   48.5220 H   0  0  0  0  0  0  0  0  0  0  0  0
   18.4439   38.3741   51.9411 H   0  0  0  0  0  0  0  0  0  0  0  0
  1  2  1  0  0  0  0
  2  3  2  0  0  0  0
  3  4  1  0  0  0  0
  4  5  2  0  0  0  0
  5  6  1  0  0  0  0
  6  7  1  0  0  0  0
  7  8  2  0  0  0  0
  7  9  1  0  0  0  0
  9 10  2  0  0  0  0
 10 11  1  0  0  0  0
 11 12  2  0  0  0  0
 12 13  1  0  0  0  0
 13 14  2  0  0  0  0
  5 15  1  0  0  0  0
 15 16  2  0  0  0  0
 16 17  1  0  0  0  0
 17 18  1  0  0  0  0
 18 19  2  0  0  0  0
 19 20  1  0  0  0  0
 20 21  2  0  0  0  0
 21 22  1  0  0  0  0
 22 23  1  0  0  0  0
 23 24  2  0  0  0  0
 24 25  1  0  0  0  0
 25 26  2  0  0  0  0
 26 27  1  0  0  0  0
 27 28  2  0  0  0  0
 22 29  2  0  0  0  0
 16  2  1  0  0  0  0
 29 18  1  0  0  0  0
 14  9  1  0  0  0  0
 28 23  1  0  0  0  0
  1 30  1  0  0  0  0
  1 31  1  0  0  0  0
  1 32  1  0  0  0  0
  3 33  1  0  0  0  0
  4 34  1  0  0  0  0
  6 35  1  0  0  0  0
 10 36  1  0  0  0  0
 11 37  1  0  0  0  0
 12 38  1  0  0  0  0
 14 39  1  0  0  0  0
 15 40  1  0  0  0  0
 17 41  1  0  0  0  0
 20 42  1  0  0  0  0
 21 43  1  0  0  0  0
 24 44  1  0  0  0  0
 25 45  1  0  0  0  0
 26 46  1  0  0  0  0
 28 47  1  0  0  0  0
M  END
> <BIOSOLVEIT.HYDE_ESTIMATED_AFFINITY_LOWER_BOUNDARY [nM]>
50490.483178

> <BIOSOLVEIT.HYDE_ESTIMATED_AFFINITY_UPPER_BOUNDARY [nM]>
5016528.027143

> <BIOSOLVEIT.HYDE_LIGAND_EFFICIENCY range: ++, +, 0, -, -->
--

> <BIOSOLVEIT.HYDE_LIGAND_LIPOPHILIC_EFFICIENCY range: ++, +, 0, -, -->
--

> <BIOSOLVEIT.INTER_CLASH range: red, yellow, green>
green

> <BIOSOLVEIT.INTRA_CLASH range: red, yellow, green>
yellow

> <BIOSOLVEIT.LOGP>
4.23792

> <BIOSOLVEIT.MOLECULAR WEIGHT>
382.425

> <BIOSOLVEIT.MOLECULE_CHECKSUM>
LTE4LjgyNjE7MC42NDkxNzc=

> <BIOSOLVEIT.TORSION_QUALITY range: red, yellow, green, not rotatable>
red

> <BIOSOLVEIT.TPSA>
92.69

$$$$
1FPU_PRC_3
foHydescor03192112293D 1   1.00000     0.00000     0
Hydescorer 1.1.0 fol007
 47 50  0  0  0  0            999 V2000
   24.1849   43.7962   53.7318 C   0  0  0  0  0  0  0  0  0  0  0  0
   23.1364   43.9890   54.8154 C   0  0  0  0  0  0  0  0  0  0  0  0
   23.4762   44.7119   55.9541 C   0  0  0  0  0  0  0  0  0  0  0  0
   22.5367   44.9047   56.9618 C   0  0  0  0  0  0  0  0  0  0  0  0
   21.2613   44.3687   56.8167 C   0  0  0  0  0  0  0  0  0  0  0  0
   20.2826   44.5618   57.8523 N   0  0  0  0  0  0  0  0  0  0  0  0
   20.5239   44.2845   59.2452 C   0  0  0  0  0  0  0  0  0  0  0  0
   21.6483   43.8456   59.6133 O   0  0  0  0  0  0  0  0  0  0  0  0
   19.4754   44.5126   60.2693 C   0  0  0  0  0  0  0  0  0  0  0  0
   19.8075   45.1574   61.4560 C   0  0  0  0  0  0  0  0  0  0  0  0
   18.8216   45.3703   62.4132 C   0  0  0  0  0  0  0  0  0  0  0  0
   17.5291   44.9288   62.1507 C   0  0  0  0  0  0  0  0  0  0  0  0
   17.2333   44.3091   60.9985 N   0  0  0  0  0  0  0  0  0  0  0  0
   18.1662   44.0922   60.0591 C   0  0  0  0  0  0  0  0  0  0  0  0
   20.9138   43.6446   55.6808 C   0  0  0  0  0  0  0  0  0  0  0  0
   21.8587   43.4557   54.6772 C   0  0  0  0  0  0  0  0  0  0  0  0
   21.5238   42.7293   53.5281 N   0  0  0  0  0  0  0  0  0  0  0  0
   20.1836   42.5990   53.0337 C   0  0  0  0  0  0  0  0  0  0  0  0
   19.3427   43.6360   53.1605 N   0  0  0  0  0  0  0  0  0  0  0  0
   18.0788   43.5706   52.7170 C   0  0  0  0  0  0  0  0  0  0  0  0
   17.6242   42.4041   52.1109 C   0  0  0  0  0  0  0  0  0  0  0  0
   18.5034   41.3340   51.9842 C   0  0  0  0  0  0  0  0  0  0  0  0
   18.0369   40.1123   51.3530 C   0  0  0  0  0  0  0  0  0  0  0  0
   18.2484   39.9222   49.9915 C   0  0  0  0  0  0  0  0  0  0  0  0
   17.8011   38.7506   49.3911 C   0  0  0  0  0  0  0  0  0  0  0  0
   17.1535   37.8024   50.1760 C   0  0  0  0  0  0  0  0  0  0  0  0
   16.9612   38.0087   51.4874 N   0  0  0  0  0  0  0  0  0  0  0  0
   17.3834   39.1304   52.0903 C   0  0  0  0  0  0  0  0  0  0  0  0
   19.7557   41.4676   52.4505 N   0  0  0  0  0  0  0  0  0  0  0  0
   23.7953   43.2605   52.9825 H   0  0  0  0  0  0  0  0  0  0  0  0
   24.4763   44.6886   53.3873 H   0  0  0  0  0  0  0  0  0  0  0  0
   24.9729   43.3124   54.1128 H   0  0  0  0  0  0  0  0  0  0  0  0
   24.3959   45.0931   56.0484 H   0  0  0  0  0  0  0  0  0  0  0  0
   22.7758   45.4235   57.7824 H   0  0  0  0  0  0  0  0  0  0  0  0
   19.3820   44.9088   57.5904 H   0  0  0  0  0  0  0  0  0  0  0  0
   20.7451   45.4646   61.6191 H   0  0  0  0  0  0  0  0  0  0  0  0
   19.0376   45.8319   63.2735 H   0  0  0  0  0  0  0  0  0  0  0  0
   16.8104   45.0754   62.8304 H   0  0  0  0  0  0  0  0  0  0  0  0
   17.9206   43.6282   59.2080 H   0  0  0  0  0  0  0  0  0  0  0  0
   19.9940   43.2636   55.5866 H   0  0  0  0  0  0  0  0  0  0  0  0
   22.2594   42.2765   53.0243 H   0  0  0  0  0  0  0  0  0  0  0  0
   17.4674   44.3550   52.8212 H   0  0  0  0  0  0  0  0  0  0  0  0
   16.6853   42.3363   51.7735 H   0  0  0  0  0  0  0  0  0  0  0  0
   18.7170   40.6205   49.4504 H   0  0  0  0  0  0  0  0  0  0  0  0
   17.9423   38.5928   48.4139 H   0  0  0  0  0  0  0  0  0  0  0  0
   16.8268   36.9553   49.7570 H   0  0  0  0  0  0  0  0  0  0  0  0
   17.2284   39.2604   53.0696 H   0  0  0  0  0  0  0  0  0  0  0  0
  1  2  1  0  0  0  0
  2  3  2  0  0  0  0
  3  4  1  0  0  0  0
  4  5  2  0  0  0  0
  5  6  1  0  0  0  0
  6  7  1  0  0  0  0
  7  8  2  0  0  0  0
  7  9  1  0  0  0  0
  9 10  2  0  0  0  0
 10 11  1  0  0  0  0
 11 12  2  0  0  0  0
 12 13  1  0  0  0  0
 13 14  2  0  0  0  0
  5 15  1  0  0  0  0
 15 16  2  0  0  0  0
 16 17  1  0  0  0  0
 17 18  1  0  0  0  0
 18 19  2  0  0  0  0
 19 20  1  0  0  0  0
 20 21  2  0  0  0  0
 21 22  1  0  0  0  0
 22 23  1  0  0  0  0
 23 24  2  0  0  0  0
 24 25  1  0  0  0  0
 25 26  2  0  0  0  0
 26 27  1  0  0  0  0
 27 28  2  0  0  0  0
 22 29  2  0  0  0  0
 16  2  1  0  0  0  0
 29 18  1  0  0  0  0
 14  9  1  0  0  0  0
 28 23  1  0  0  0  0
  1 30  1  0  0  0  0
  1 31  1  0  0  0  0
  1 32  1  0  0  0  0
  3 33  1  0  0  0  0
  4 34  1  0  0  0  0
  6 35  1  0  0  0  0
 10 36  1  0  0  0  0
 11 37  1  0  0  0  0
 12 38  1  0  0  0  0
 14 39  1  0  0  0  0
 15 40  1  0  0  0  0
 17 41  1  0  0  0  0
 20 42  1  0  0  0  0
 21 43  1  0  0  0  0
 24 44  1  0  0  0  0
 25 45  1  0  0  0  0
 26 46  1  0  0  0  0
 28 47  1  0  0  0  0
M  END
> <BIOSOLVEIT.HYDE_ESTIMATED_AFFINITY_LOWER_BOUNDARY [nM]>
2537546.609614

> <BIOSOLVEIT.HYDE_ESTIMATED_AFFINITY_UPPER_BOUNDARY [nM]>
252120258.828076

> <BIOSOLVEIT.HYDE_LIGAND_EFFICIENCY range: ++, +, 0, -, -->
--

> <BIOSOLVEIT.HYDE_LIGAND_LIPOPHILIC_EFFICIENCY range: ++, +, 0, -, -->
--

> <BIOSOLVEIT.INTER_CLASH range: red, yellow, green>
green

> <BIOSOLVEIT.INTRA_CLASH range: red, yellow, green>
green

> <BIOSOLVEIT.LOGP>
4.23792

> <BIOSOLVEIT.MOLECULAR WEIGHT>
382.425

> <BIOSOLVEIT.MOLECULE_CHECKSUM>
LTkuMTE1NjM7MC4zMTQzMzI=

> <BIOSOLVEIT.TORSION_QUALITY range: red, yellow, green, not rotatable>
red

> <BIOSOLVEIT.TPSA>
92.69

$$$$
6HD6_FYH_1
foHydescor03192112293D 1   1.00000     0.00000     0
Hydescorer 1.1.0 fol007
 46 48  0  0  0  0            999 V2000
   21.2781   45.5321   58.3829 O   0  0  0  0  0  0  0  0  0  0  0  0
   21.4983   45.2901   57.1657 C   0  0  0  0  0  0  0  0  0  0  0  0
   20.3805   45.1172   56.2806 N   0  0  0  0  0  0  0  0  0  0  0  0
   20.3954   44.3019   55.1433 C   0  0  0  0  0  0  0  0  0  0  0  0
   21.5231   43.5376   54.8605 C   0  0  0  0  0  0  0  0  0  0  0  0
   21.5468   42.7239   53.7320 C   0  0  0  0  0  0  0  0  0  0  0  0
   20.4346   42.6877   52.8976 C   0  0  0  0  0  0  0  0  0  0  0  0
   20.4458   41.8713   51.7550 O   0  0  0  0  0  0  0  0  0  0  0  0
   19.3181   41.1746   51.2293 C   0  0  0  0  0  0  0  0  0  0  0  0
   18.8238   40.2893   52.1698 F   0  0  0  0  0  0  0  0  0  0  0  0
   19.7112   40.4639   50.1121 F   0  0  0  0  0  0  0  0  0  0  0  0
   18.3316   42.0724   50.8623 F   0  0  0  0  0  0  0  0  0  0  0  0
   19.3025   43.4493   53.1723 C   0  0  0  0  0  0  0  0  0  0  0  0
   19.2874   44.2595   54.3027 C   0  0  0  0  0  0  0  0  0  0  0  0
   22.8964   45.2346   56.6777 C   0  0  0  0  0  0  0  0  0  0  0  0
   23.8142   44.3954   57.3010 C   0  0  0  0  0  0  0  0  0  0  0  0
   25.1224   44.3563   56.8292 C   0  0  0  0  0  0  0  0  0  0  0  0
   25.5180   45.1406   55.7506 C   0  0  0  0  0  0  0  0  0  0  0  0
   24.5832   45.9723   55.1418 C   0  0  0  0  0  0  0  0  0  0  0  0
   25.0042   46.8337   53.9616 C   0  0  0  0  0  0  0  0  0  0  0  0
   24.4908   46.3008   52.6778 N   0  0  0  0  0  0  0  0  0  0  0  0
   24.9767   47.1277   51.5622 C   0  0  0  0  0  0  0  0  0  0  0  0
   25.1620   46.3346   50.2749 C   0  0  0  0  0  0  0  0  0  0  0  0
   26.1818   45.3547   50.4295 O   0  0  0  0  0  0  0  0  0  0  0  0
   26.2460   44.8341   51.7536 C   0  0  0  0  0  0  0  0  0  0  0  0
   24.8979   44.9023   52.4545 C   0  0  0  0  0  0  0  0  0  0  0  0
   23.2700   46.0271   55.5974 C   0  0  0  0  0  0  0  0  0  0  0  0
   19.5370   45.6115   56.4906 H   0  0  0  0  0  0  0  0  0  0  0  0
   22.3166   43.5732   55.4681 H   0  0  0  0  0  0  0  0  0  0  0  0
   22.3540   42.1716   53.5234 H   0  0  0  0  0  0  0  0  0  0  0  0
   18.5095   43.4144   52.5642 H   0  0  0  0  0  0  0  0  0  0  0  0
   18.4801   44.8116   54.5113 H   0  0  0  0  0  0  0  0  0  0  0  0
   23.5377   43.8285   58.0770 H   0  0  0  0  0  0  0  0  0  0  0  0
   25.7880   43.7556   57.2720 H   0  0  0  0  0  0  0  0  0  0  0  0
   26.4604   45.1071   55.4176 H   0  0  0  0  0  0  0  0  0  0  0  0
   26.0031   46.8635   53.9230 H   0  0  0  0  0  0  0  0  0  0  0  0
   24.6481   47.7588   54.0932 H   0  0  0  0  0  0  0  0  0  0  0  0
   25.8563   47.5272   51.8205 H   0  0  0  0  0  0  0  0  0  0  0  0
   24.3150   47.8585   51.3946 H   0  0  0  0  0  0  0  0  0  0  0  0
   25.4171   46.9602   49.5378 H   0  0  0  0  0  0  0  0  0  0  0  0
   24.3021   45.8796   50.0432 H   0  0  0  0  0  0  0  0  0  0  0  0
   26.9108   45.3657   52.2783 H   0  0  0  0  0  0  0  0  0  0  0  0
   26.5410   43.8795   51.7119 H   0  0  0  0  0  0  0  0  0  0  0  0
   24.9637   44.4359   53.3366 H   0  0  0  0  0  0  0  0  0  0  0  0
   24.2109   44.4479   51.8875 H   0  0  0  0  0  0  0  0  0  0  0  0
   22.6041   46.6276   55.1546 H   0  0  0  0  0  0  0  0  0  0  0  0
  1  2  2  0  0  0  0
  2  3  1  0  0  0  0
  3  4  1  0  0  0  0
  4  5  2  0  0  0  0
  5  6  1  0  0  0  0
  6  7  2  0  0  0  0
  7  8  1  0  0  0  0
  8  9  1  0  0  0  0
  9 10  1  0  0  0  0
  9 11  1  0  0  0  0
  9 12  1  0  0  0  0
  7 13  1  0  0  0  0
 13 14  2  0  0  0  0
  2 15  1  0  0  0  0
 15 16  2  0  0  0  0
 16 17  1  0  0  0  0
 17 18  2  0  0  0  0
 18 19  1  0  0  0  0
 19 20  1  0  0  0  0
 20 21  1  0  0  0  0
 21 22  1  0  0  0  0
 22 23  1  0  0  0  0
 23 24  1  0  0  0  0
 24 25  1  0  0  0  0
 25 26  1  0  0  0  0
 19 27  2  0  0  0  0
 14  4  1  0  0  0  0
 27 15  1  0  0  0  0
 26 21  1  0  0  0  0
  3 28  1  0  0  0  0
  5 29  1  0  0  0  0
  6 30  1  0  0  0  0
 13 31  1  0  0  0  0
 14 32  1  0  0  0  0
 16 33  1  0  0  0  0
 17 34  1  0  0  0  0
 18 35  1  0  0  0  0
 20 36  1  0  0  0  0
 20 37  1  0  0  0  0
 27 46  1  0  0  0  0
 22 38  1  0  0  0  0
 22 39  1  0  0  0  0
 23 40  1  0  0  0  0
 23 41  1  0  0  0  0
 25 42  1  0  0  0  0
 25 43  1  0  0  0  0
 26 44  1  0  0  0  0
 26 45  1  0  0  0  0
M  END
> <BIOSOLVEIT.HYDE_ESTIMATED_AFFINITY_LOWER_BOUNDARY [nM]>
262879.252032

> <BIOSOLVEIT.HYDE_ESTIMATED_AFFINITY_UPPER_BOUNDARY [nM]>
26118607.954546

> <BIOSOLVEIT.HYDE_LIGAND_EFFICIENCY range: ++, +, 0, -, -->
--

> <BIOSOLVEIT.HYDE_LIGAND_LIPOPHILIC_EFFICIENCY range: ++, +, 0, -, -->
--

> <BIOSOLVEIT.INTER_CLASH range: red, yellow, green>
green

> <BIOSOLVEIT.INTRA_CLASH range: red, yellow, green>
red

> <BIOSOLVEIT.LOGP>
3.6697

> <BIOSOLVEIT.MOLECULAR WEIGHT>
380.364

> <BIOSOLVEIT.MOLECULE_CHECKSUM>
LTE0LjczNjE7MC41NDU3OA==

> <BIOSOLVEIT.TORSION_QUALITY range: red, yellow, green, not rotatable>
red

> <BIOSOLVEIT.TPSA>
50.8

$$$$
6HD6_FYH_2
foHydescor03192112293D 1   1.00000     0.00000     0
Hydescorer 1.1.0 fol007
 47 49  0  0  0  0            999 V2000
   21.1311   45.0073   58.8707 O   0  0  0  0  0  0  0  0  0  0  0  0
   21.3457   44.9038   57.6331 C   0  0  0  0  0  0  0  0  0  0  0  0
   20.2239   44.8186   56.7403 N   0  0  0  0  0  0  0  0  0  0  0  0
   20.2391   44.1344   55.5197 C   0  0  0  0  0  0  0  0  0  0  0  0
   21.2120   43.1676   55.2859 C   0  0  0  0  0  0  0  0  0  0  0  0
   21.2348   42.4822   54.0752 C   0  0  0  0  0  0  0  0  0  0  0  0
   20.2777   42.7771   53.1099 C   0  0  0  0  0  0  0  0  0  0  0  0
   20.2899   42.0931   51.8835 O   0  0  0  0  0  0  0  0  0  0  0  0
   19.2282   41.2850   51.3804 C   0  0  0  0  0  0  0  0  0  0  0  0
   18.9695   40.2418   52.2508 F   0  0  0  0  0  0  0  0  0  0  0  0
   19.6033   40.7622   50.1580 F   0  0  0  0  0  0  0  0  0  0  0  0
   18.0880   42.0490   51.2075 F   0  0  0  0  0  0  0  0  0  0  0  0
   19.3012   43.7428   53.3348 C   0  0  0  0  0  0  0  0  0  0  0  0
   19.2858   44.4229   54.5480 C   0  0  0  0  0  0  0  0  0  0  0  0
   22.7410   44.9166   57.1343 C   0  0  0  0  0  0  0  0  0  0  0  0
   23.7044   44.1261   57.7526 C   0  0  0  0  0  0  0  0  0  0  0  0
   25.0093   44.1511   57.2707 C   0  0  0  0  0  0  0  0  0  0  0  0
   25.3569   44.9511   56.1871 C   0  0  0  0  0  0  0  0  0  0  0  0
   24.3772   45.7334   55.5835 C   0  0  0  0  0  0  0  0  0  0  0  0
   24.7455   46.6115   54.3980 C   0  0  0  0  0  0  0  0  0  0  0  0
   25.0677   45.8085   53.1950 N   0  3  0  0  0  0  0  0  0  0  0  0
   24.6844   46.4995   51.9556 C   0  0  0  0  0  0  0  0  0  0  0  0
   25.0057   45.6542   50.7304 C   0  0  0  0  0  0  0  0  0  0  0  0
   25.7065   44.4661   51.0815 O   0  0  0  0  0  0  0  0  0  0  0  0
   26.8537   44.7086   51.8882 C   0  0  0  0  0  0  0  0  0  0  0  0
   26.5073   45.5126   53.1316 C   0  0  0  0  0  0  0  0  0  0  0  0
   23.0663   45.7238   56.0492 C   0  0  0  0  0  0  0  0  0  0  0  0
   19.3771   45.2779   57.0083 H   0  0  0  0  0  0  0  0  0  0  0  0
   21.8948   42.9654   55.9879 H   0  0  0  0  0  0  0  0  0  0  0  0
   21.9311   41.7858   53.9011 H   0  0  0  0  0  0  0  0  0  0  0  0
   18.6188   43.9455   52.6324 H   0  0  0  0  0  0  0  0  0  0  0  0
   18.5895   45.1192   54.7221 H   0  0  0  0  0  0  0  0  0  0  0  0
   23.4625   43.5483   58.5321 H   0  0  0  0  0  0  0  0  0  0  0  0
   25.7075   43.5856   57.7097 H   0  0  0  0  0  0  0  0  0  0  0  0
   26.2971   44.9639   55.8468 H   0  0  0  0  0  0  0  0  0  0  0  0
   25.5425   47.1646   54.6406 H   0  0  0  0  0  0  0  0  0  0  0  0
   23.9741   47.2122   54.1886 H   0  0  0  0  0  0  0  0  0  0  0  0
   24.5670   44.9444   53.2456 H   0  0  0  0  0  0  0  0  0  0  0  0
   25.1847   47.3633   51.8959 H   0  0  0  0  0  0  0  0  0  0  0  0
   23.7018   46.6839   51.9757 H   0  0  0  0  0  0  0  0  0  0  0  0
   25.5714   46.1916   50.1049 H   0  0  0  0  0  0  0  0  0  0  0  0
   24.1510   45.4042   50.2756 H   0  0  0  0  0  0  0  0  0  0  0  0
   27.5263   45.2170   51.3505 H   0  0  0  0  0  0  0  0  0  0  0  0
   27.2445   43.8316   52.1678 H   0  0  0  0  0  0  0  0  0  0  0  0
   27.0160   46.3733   53.1149 H   0  0  0  0  0  0  0  0  0  0  0  0
   26.7675   44.9873   53.9418 H   0  0  0  0  0  0  0  0  0  0  0  0
   22.3680   46.2891   55.6102 H   0  0  0  0  0  0  0  0  0  0  0  0
  1  2  2  0  0  0  0
  2  3  1  0  0  0  0
  3  4  1  0  0  0  0
  4  5  2  0  0  0  0
  5  6  1  0  0  0  0
  6  7  2  0  0  0  0
  7  8  1  0  0  0  0
  8  9  1  0  0  0  0
  9 10  1  0  0  0  0
  9 11  1  0  0  0  0
  9 12  1  0  0  0  0
  7 13  1  0  0  0  0
 13 14  2  0  0  0  0
  2 15  1  0  0  0  0
 15 16  2  0  0  0  0
 16 17  1  0  0  0  0
 17 18  2  0  0  0  0
 18 19  1  0  0  0  0
 19 20  1  0  0  0  0
 20 21  1  0  0  0  0
 21 22  1  0  0  0  0
 22 23  1  0  0  0  0
 23 24  1  0  0  0  0
 24 25  1  0  0  0  0
 25 26  1  0  0  0  0
 19 27  2  0  0  0  0
 14  4  1  0  0  0  0
 27 15  1  0  0  0  0
 26 21  1  0  0  0  0
  3 28  1  0  0  0  0
  5 29  1  0  0  0  0
  6 30  1  0  0  0  0
 13 31  1  0  0  0  0
 14 32  1  0  0  0  0
 16 33  1  0  0  0  0
 17 34  1  0  0  0  0
 18 35  1  0  0  0  0
 20 36  1  0  0  0  0
 20 37  1  0  0  0  0
 21 38  1  0  0  0  0
 22 39  1  0  0  0  0
 22 40  1  0  0  0  0
 23 41  1  0  0  0  0
 23 42  1  0  0  0  0
 25 43  1  0  0  0  0
 25 44  1  0  0  0  0
 26 45  1  0  0  0  0
 26 46  1  0  0  0  0
 27 47  1  0  0  0  0
M  CHG  1  21   1
M  END
> <BIOSOLVEIT.HYDE_ESTIMATED_AFFINITY_LOWER_BOUNDARY [nM]>
422.406089

> <BIOSOLVEIT.HYDE_ESTIMATED_AFFINITY_UPPER_BOUNDARY [nM]>
41968.542399

> <BIOSOLVEIT.HYDE_LIGAND_EFFICIENCY range: ++, +, 0, -, -->
-

> <BIOSOLVEIT.HYDE_LIGAND_LIPOPHILIC_EFFICIENCY range: ++, +, 0, -, -->
-

> <BIOSOLVEIT.INTER_CLASH range: red, yellow, green>
green

> <BIOSOLVEIT.INTRA_CLASH range: red, yellow, green>
yellow

> <BIOSOLVEIT.LOGP>
2.2526

> <BIOSOLVEIT.MOLECULAR WEIGHT>
381.372

> <BIOSOLVEIT.MOLECULE_CHECKSUM>
LTMwLjY4NDQ7MS4xMzY0Ng==

> <BIOSOLVEIT.TORSION_QUALITY range: red, yellow, green, not rotatable>
red

> <BIOSOLVEIT.TPSA>
52

$$$$
6HD6_FYH_3
foHydescor03192112293D 1   1.00000     0.00000     0
Hydescorer 1.1.0 fol007
 47 49  0  0  0  0            999 V2000
   21.5500   45.7424   59.2604 O   0  0  0  0  0  0  0  0  0  0  0  0
   21.7136   45.5113   58.0323 C   0  0  0  0  0  0  0  0  0  0  0  0
   20.5561   45.3703   57.1938 N   0  0  0  0  0  0  0  0  0  0  0  0
   20.5069   44.5688   56.0477 C   0  0  0  0  0  0  0  0  0  0  0  0
   20.7687   43.2062   56.1503 C   0  0  0  0  0  0  0  0  0  0  0  0
   20.7221   42.4015   55.0161 C   0  0  0  0  0  0  0  0  0  0  0  0
   20.4125   42.9764   53.7881 C   0  0  0  0  0  0  0  0  0  0  0  0
   20.3629   42.1758   52.6355 O   0  0  0  0  0  0  0  0  0  0  0  0
   19.1928   41.5425   52.1222 C   0  0  0  0  0  0  0  0  0  0  0  0
   18.6721   40.6703   53.0607 F   0  0  0  0  0  0  0  0  0  0  0  0
   19.5302   40.8280   50.9892 F   0  0  0  0  0  0  0  0  0  0  0  0
   18.2456   42.4926   51.7845 F   0  0  0  0  0  0  0  0  0  0  0  0
   20.1498   44.3385   53.6758 C   0  0  0  0  0  0  0  0  0  0  0  0
   20.1984   45.1353   54.8149 C   0  0  0  0  0  0  0  0  0  0  0  0
   23.0883   45.4354   57.4843 C   0  0  0  0  0  0  0  0  0  0  0  0
   24.0206   44.5846   58.0692 C   0  0  0  0  0  0  0  0  0  0  0  0
   25.3065   44.5266   57.5412 C   0  0  0  0  0  0  0  0  0  0  0  0
   25.6658   45.3035   56.4448 C   0  0  0  0  0  0  0  0  0  0  0  0
   24.7172   46.1472   55.8752 C   0  0  0  0  0  0  0  0  0  0  0  0
   25.0984   47.0008   54.6760 C   0  0  0  0  0  0  0  0  0  0  0  0
   25.2885   46.1838   53.4545 N   0  3  0  0  0  0  0  0  0  0  0  0
   24.2144   45.1753   53.3987 C   0  0  0  0  0  0  0  0  0  0  0  0
   24.7892   43.7664   53.3280 C   0  0  0  0  0  0  0  0  0  0  0  0
   25.7182   43.6750   52.2574 O   0  0  0  0  0  0  0  0  0  0  0  0
   26.7827   44.6190   52.3434 C   0  0  0  0  0  0  0  0  0  0  0  0
   26.6344   45.5907   53.5064 C   0  0  0  0  0  0  0  0  0  0  0  0
   23.4257   46.2210   56.3871 C   0  0  0  0  0  0  0  0  0  0  0  0
   19.7319   45.8777   57.4453 H   0  0  0  0  0  0  0  0  0  0  0  0
   20.9904   42.8052   57.0392 H   0  0  0  0  0  0  0  0  0  0  0  0
   20.9089   41.4214   55.0831 H   0  0  0  0  0  0  0  0  0  0  0  0
   19.9287   44.7395   52.7868 H   0  0  0  0  0  0  0  0  0  0  0  0
   20.0118   46.1154   54.7478 H   0  0  0  0  0  0  0  0  0  0  0  0
   23.7701   44.0228   58.8576 H   0  0  0  0  0  0  0  0  0  0  0  0
   25.9823   43.9174   57.9561 H   0  0  0  0  0  0  0  0  0  0  0  0
   26.5923   45.2564   56.0713 H   0  0  0  0  0  0  0  0  0  0  0  0
   25.9515   47.4816   54.8794 H   0  0  0  0  0  0  0  0  0  0  0  0
   24.3718   47.6673   54.5095 H   0  0  0  0  0  0  0  0  0  0  0  0
   25.2229   46.7761   52.6514 H   0  0  0  0  0  0  0  0  0  0  0  0
   23.6531   45.3402   52.5877 H   0  0  0  0  0  0  0  0  0  0  0  0
   23.6474   45.2560   54.2186 H   0  0  0  0  0  0  0  0  0  0  0  0
   24.0471   43.1128   53.1795 H   0  0  0  0  0  0  0  0  0  0  0  0
   25.2530   43.5543   54.1882 H   0  0  0  0  0  0  0  0  0  0  0  0
   26.8105   45.1442   51.4928 H   0  0  0  0  0  0  0  0  0  0  0  0
   27.6416   44.1194   52.4549 H   0  0  0  0  0  0  0  0  0  0  0  0
   27.3233   46.3119   53.4328 H   0  0  0  0  0  0  0  0  0  0  0  0
   26.7541   45.1023   54.3707 H   0  0  0  0  0  0  0  0  0  0  0  0
   22.7496   46.8299   55.9722 H   0  0  0  0  0  0  0  0  0  0  0  0
  1  2  2  0  0  0  0
  2  3  1  0  0  0  0
  3  4  1  0  0  0  0
  4  5  2  0  0  0  0
  5  6  1  0  0  0  0
  6  7  2  0  0  0  0
  7  8  1  0  0  0  0
  8  9  1  0  0  0  0
  9 10  1  0  0  0  0
  9 11  1  0  0  0  0
  9 12  1  0  0  0  0
  7 13  1  0  0  0  0
 13 14  2  0  0  0  0
  2 15  1  0  0  0  0
 15 16  2  0  0  0  0
 16 17  1  0  0  0  0
 17 18  2  0  0  0  0
 18 19  1  0  0  0  0
 19 20  1  0  0  0  0
 20 21  1  0  0  0  0
 21 22  1  0  0  0  0
 22 23  1  0  0  0  0
 23 24  1  0  0  0  0
 24 25  1  0  0  0  0
 25 26  1  0  0  0  0
 19 27  2  0  0  0  0
 14  4  1  0  0  0  0
 27 15  1  0  0  0  0
 26 21  1  0  0  0  0
  3 28  1  0  0  0  0
  5 29  1  0  0  0  0
  6 30  1  0  0  0  0
 13 31  1  0  0  0  0
 14 32  1  0  0  0  0
 16 33  1  0  0  0  0
 17 34  1  0  0  0  0
 18 35  1  0  0  0  0
 20 36  1  0  0  0  0
 20 37  1  0  0  0  0
 21 38  1  0  0  0  0
 22 39  1  0  0  0  0
 22 40  1  0  0  0  0
 23 41  1  0  0  0  0
 23 42  1  0  0  0  0
 25 43  1  0  0  0  0
 25 44  1  0  0  0  0
 26 45  1  0  0  0  0
 26 46  1  0  0  0  0
 27 47  1  0  0  0  0
M  CHG  1  21   1
M  END
> <BIOSOLVEIT.HYDE_ESTIMATED_AFFINITY_LOWER_BOUNDARY [nM]>
251497.721026

> <BIOSOLVEIT.HYDE_ESTIMATED_AFFINITY_UPPER_BOUNDARY [nM]>
24987785.556171

> <BIOSOLVEIT.HYDE_LIGAND_EFFICIENCY range: ++, +, 0, -, -->
--

> <BIOSOLVEIT.HYDE_LIGAND_LIPOPHILIC_EFFICIENCY range: ++, +, 0, -, -->
--

> <BIOSOLVEIT.INTER_CLASH range: red, yellow, green>
green

> <BIOSOLVEIT.INTRA_CLASH range: red, yellow, green>
green

> <BIOSOLVEIT.LOGP>
2.2526

> <BIOSOLVEIT.MOLECULAR WEIGHT>
381.372

> <BIOSOLVEIT.MOLECULE_CHECKSUM>
LTE0Ljg0NTg7MC41NDk4NDQ=

> <BIOSOLVEIT.TORSION_QUALITY range: red, yellow, green, not rotatable>
yellow

> <BIOSOLVEIT.TPSA>
52

$$$$
6HD4_FYW_1
foHydescor03192112293D 1   1.00000     0.00000     0
Hydescorer 1.1.0 fol007
 50 53  0  0  0  0            999 V2000
   21.6912   43.8571   53.2920 O   0  0  0  0  0  0  0  0  0  0  0  0
   20.9283   43.8797   54.2964 C   0  0  0  0  0  0  0  0  0  0  0  0
   19.6465   43.2248   54.2389 N   0  0  0  0  0  0  0  0  0  0  0  0
   19.1567   42.5243   53.0829 C   0  0  0  0  0  0  0  0  0  0  0  0
   20.0595   41.9445   52.1972 C   0  0  0  0  0  0  0  0  0  0  0  0
   19.5946   41.2644   51.0758 C   0  0  0  0  0  0  0  0  0  0  0  0
   18.2242   41.1749   50.8557 C   0  0  0  0  0  0  0  0  0  0  0  0
   17.7606   40.5188   49.7715 O   0  0  0  0  0  0  0  0  0  0  0  0
   17.2865   39.1740   49.7626 C   0  0  0  0  0  0  0  0  0  0  0  0
   16.2124   39.0717   50.6253 F   0  0  0  0  0  0  0  0  0  0  0  0
   16.8717   38.8231   48.4903 F   0  0  0  0  0  0  0  0  0  0  0  0
   18.2833   38.3142   50.1880 F   0  0  0  0  0  0  0  0  0  0  0  0
   17.3137   41.7523   51.7359 C   0  0  0  0  0  0  0  0  0  0  0  0
   17.7873   42.4299   52.8546 C   0  0  0  0  0  0  0  0  0  0  0  0
   21.3636   44.5787   55.4908 C   0  0  0  0  0  0  0  0  0  0  0  0
   20.5120   44.7774   56.5728 C   0  0  0  0  0  0  0  0  0  0  0  0
   20.9305   45.4253   57.6704 N   0  0  0  0  0  0  0  0  0  0  0  0
   22.1797   45.9049   57.7671 C   0  0  0  0  0  0  0  0  0  0  0  0
   22.5835   46.5765   58.9275 N   0  0  0  0  0  0  0  0  0  0  0  0
   23.4583   46.0224   59.9671 C   0  0  0  0  0  0  0  0  0  0  0  0
   24.2748   47.2325   60.3688 C   0  0  0  0  0  0  0  0  0  0  0  0
   23.3049   48.4008   60.2696 C   0  0  2  0  0  0  0  0  0  0  0  0
   22.7151   48.6815   61.5308 O   0  0  0  0  0  0  0  0  0  0  0  0
   22.2207   47.9366   59.3140 C   0  0  0  0  0  0  0  0  0  0  0  0
   23.0738   45.7350   56.7146 C   0  0  0  0  0  0  0  0  0  0  0  0
   24.4316   46.2397   56.7830 C   0  0  0  0  0  0  0  0  0  0  0  0
   25.5192   45.3762   56.7090 C   0  0  0  0  0  0  0  0  0  0  0  0
   26.7668   45.8633   56.7715 N   0  0  0  0  0  0  0  0  0  0  0  0
   26.9929   47.1786   56.9064 C   0  0  0  0  0  0  0  0  0  0  0  0
   25.9613   48.0322   56.9793 N   0  0  0  0  0  0  0  0  0  0  0  0
   24.6951   47.5980   56.9205 C   0  0  0  0  0  0  0  0  0  0  0  0
   22.6640   45.0664   55.5659 C   0  0  0  0  0  0  0  0  0  0  0  0
   19.0634   43.2594   55.0505 H   0  0  0  0  0  0  0  0  0  0  0  0
   21.0424   42.0164   52.3665 H   0  0  0  0  0  0  0  0  0  0  0  0
   20.2383   40.8450   50.4356 H   0  0  0  0  0  0  0  0  0  0  0  0
   16.3309   41.6809   51.5662 H   0  0  0  0  0  0  0  0  0  0  0  0
   17.1436   42.8491   53.4948 H   0  0  0  0  0  0  0  0  0  0  0  0
   19.5743   44.4323   56.5318 H   0  0  0  0  0  0  0  0  0  0  0  0
   24.0407   45.2957   59.6027 H   0  0  0  0  0  0  0  0  0  0  0  0
   22.9282   45.6696   60.7382 H   0  0  0  0  0  0  0  0  0  0  0  0
   25.0463   47.3603   59.7456 H   0  0  0  0  0  0  0  0  0  0  0  0
   24.6146   47.1343   61.3041 H   0  0  0  0  0  0  0  0  0  0  0  0
   23.7669   49.2114   59.9097 H   0  0  0  0  0  0  0  0  0  0  0  0
   22.1934   49.5325   61.4729 H   0  0  0  0  0  0  0  0  0  0  0  0
   22.1887   48.5299   58.5097 H   0  0  0  0  0  0  0  0  0  0  0  0
   21.3302   47.9431   59.7688 H   0  0  0  0  0  0  0  0  0  0  0  0
   25.3709   44.3923   56.6092 H   0  0  0  0  0  0  0  0  0  0  0  0
   27.9308   47.5226   56.9527 H   0  0  0  0  0  0  0  0  0  0  0  0
   23.9395   48.2508   56.9754 H   0  0  0  0  0  0  0  0  0  0  0  0
   23.2971   44.9379   54.8027 H   0  0  0  0  0  0  0  0  0  0  0  0
  1  2  2  0  0  0  0
  2  3  1  0  0  0  0
  3  4  1  0  0  0  0
  4  5  2  0  0  0  0
  5  6  1  0  0  0  0
  6  7  2  0  0  0  0
  7  8  1  0  0  0  0
  8  9  1  0  0  0  0
  9 10  1  0  0  0  0
  9 11  1  0  0  0  0
  9 12  1  0  0  0  0
  7 13  1  0  0  0  0
 13 14  2  0  0  0  0
  2 15  1  0  0  0  0
 15 16  2  0  0  0  0
 16 17  1  0  0  0  0
 17 18  2  0  0  0  0
 18 19  1  0  0  0  0
 19 20  1  0  0  0  0
 20 21  1  0  0  0  0
 21 22  1  0  0  0  0
 22 23  1  0  0  0  0
 22 24  1  0  0  0  0
 18 25  1  0  0  0  0
 25 26  1  0  0  0  0
 26 27  2  0  0  0  0
 27 28  1  0  0  0  0
 28 29  2  0  0  0  0
 29 30  1  0  0  0  0
 30 31  2  0  0  0  0
 25 32  2  0  0  0  0
 14  4  1  0  0  0  0
 32 15  1  0  0  0  0
 24 19  1  0  0  0  0
 31 26  1  0  0  0  0
  3 33  1  0  0  0  0
  5 34  1  0  0  0  0
  6 35  1  0  0  0  0
 13 36  1  0  0  0  0
 14 37  1  0  0  0  0
 16 38  1  0  0  0  0
 20 39  1  0  0  0  0
 20 40  1  0  0  0  0
 21 41  1  0  0  0  0
 21 42  1  0  0  0  0
 22 43  1  0  0  0  0
 23 44  1  0  0  0  0
 24 45  1  0  0  0  0
 24 46  1  0  0  0  0
 27 47  1  0  0  0  0
 29 48  1  0  0  0  0
 31 49  1  0  0  0  0
 32 50  1  0  0  0  0
M  END
> <BIOSOLVEIT.HYDE_ESTIMATED_AFFINITY_LOWER_BOUNDARY [nM]>
115.870546

> <BIOSOLVEIT.HYDE_ESTIMATED_AFFINITY_UPPER_BOUNDARY [nM]>
11512.423809

> <BIOSOLVEIT.HYDE_LIGAND_EFFICIENCY range: ++, +, 0, -, -->
-

> <BIOSOLVEIT.HYDE_LIGAND_LIPOPHILIC_EFFICIENCY range: ++, +, 0, -, -->
-

> <BIOSOLVEIT.INTER_CLASH range: red, yellow, green>
green

> <BIOSOLVEIT.INTRA_CLASH range: red, yellow, green>
yellow

> <BIOSOLVEIT.LOGP>
3.2605

> <BIOSOLVEIT.MOLECULAR WEIGHT>
445.399

> <BIOSOLVEIT.MOLECULE_CHECKSUM>
LTMzLjg5MDk7MS4wNTkwOQ==

> <BIOSOLVEIT.TORSION_QUALITY range: red, yellow, green, not rotatable>
green

> <BIOSOLVEIT.TPSA>
100.47

$$$$
6HD4_FYW_2
foHydescor03192112293D 1   1.00000     0.00000     0
Hydescorer 1.1.0 fol007
 50 53  0  0  0  0            999 V2000
   21.5750   43.4105   52.7666 O   0  0  0  0  0  0  0  0  0  0  0  0
   20.8809   43.5588   53.8095 C   0  0  0  0  0  0  0  0  0  0  0  0
   19.5494   43.0124   53.8691 N   0  0  0  0  0  0  0  0  0  0  0  0
   18.9331   42.2866   52.7919 C   0  0  0  0  0  0  0  0  0  0  0  0
   19.7313   41.6254   51.8637 C   0  0  0  0  0  0  0  0  0  0  0  0
   19.1436   40.9202   50.8179 C   0  0  0  0  0  0  0  0  0  0  0  0
   17.7568   40.8879   50.7157 C   0  0  0  0  0  0  0  0  0  0  0  0
   17.1747   40.2083   49.7056 O   0  0  0  0  0  0  0  0  0  0  0  0
   16.8337   38.8240   49.7329 C   0  0  0  0  0  0  0  0  0  0  0  0
   15.9406   38.6027   50.7633 F   0  0  0  0  0  0  0  0  0  0  0  0
   16.2382   38.4560   48.5397 F   0  0  0  0  0  0  0  0  0  0  0  0
   17.9650   38.0584   49.9516 F   0  0  0  0  0  0  0  0  0  0  0  0
   16.9506   41.5469   51.6389 C   0  0  0  0  0  0  0  0  0  0  0  0
   17.5465   42.2490   52.6814 C   0  0  0  0  0  0  0  0  0  0  0  0
   21.4454   44.2900   54.9281 C   0  0  0  0  0  0  0  0  0  0  0  0
   20.6474   45.0288   55.7959 C   0  0  0  0  0  0  0  0  0  0  0  0
   21.1851   45.6989   56.8262 N   0  0  0  0  0  0  0  0  0  0  0  0
   22.5061   45.6835   57.0587 C   0  0  0  0  0  0  0  0  0  0  0  0
   23.0342   46.3943   58.1434 N   0  0  0  0  0  0  0  0  0  0  0  0
   23.1067   45.9203   59.5218 C   0  0  0  0  0  0  0  0  0  0  0  0
   22.7874   47.1797   60.3015 C   0  0  0  0  0  0  0  0  0  0  0  0
   23.4820   48.2855   59.5179 C   0  0  2  0  0  0  0  0  0  0  0  0
   22.6716   49.4520   59.5547 O   0  0  0  0  0  0  0  0  0  0  0  0
   23.6098   47.7406   58.1074 C   0  0  0  0  0  0  0  0  0  0  0  0
   23.3518   44.9613   56.2222 C   0  0  0  0  0  0  0  0  0  0  0  0
   24.7847   44.9216   56.4420 C   0  0  0  0  0  0  0  0  0  0  0  0
   25.3157   44.3384   57.5873 C   0  0  0  0  0  0  0  0  0  0  0  0
   26.6436   44.3097   57.7704 N   0  0  0  0  0  0  0  0  0  0  0  0
   27.4811   44.8371   56.8650 C   0  0  0  0  0  0  0  0  0  0  0  0
   26.9942   45.4046   55.7518 N   0  0  0  0  0  0  0  0  0  0  0  0
   25.6756   45.4587   55.5194 C   0  0  0  0  0  0  0  0  0  0  0  0
   22.8185   44.2581   55.1473 C   0  0  0  0  0  0  0  0  0  0  0  0
   19.0229   43.1458   54.7088 H   0  0  0  0  0  0  0  0  0  0  0  0
   20.7272   41.6568   51.9482 H   0  0  0  0  0  0  0  0  0  0  0  0
   19.7115   40.4423   50.1478 H   0  0  0  0  0  0  0  0  0  0  0  0
   15.9547   41.5160   51.5539 H   0  0  0  0  0  0  0  0  0  0  0  0
   16.9785   42.7267   53.3516 H   0  0  0  0  0  0  0  0  0  0  0  0
   19.6587   45.0607   55.6495 H   0  0  0  0  0  0  0  0  0  0  0  0
   24.0204   45.5782   59.7413 H   0  0  0  0  0  0  0  0  0  0  0  0
   22.4316   45.2035   59.6961 H   0  0  0  0  0  0  0  0  0  0  0  0
   23.1490   47.1226   61.2321 H   0  0  0  0  0  0  0  0  0  0  0  0
   21.8002   47.3352   60.3364 H   0  0  0  0  0  0  0  0  0  0  0  0
   24.3851   48.4741   59.9038 H   0  0  0  0  0  0  0  0  0  0  0  0
   22.4560   49.6784   60.5046 H   0  0  0  0  0  0  0  0  0  0  0  0
   24.5714   47.7006   57.8357 H   0  0  0  0  0  0  0  0  0  0  0  0
   23.1055   48.3174   57.4647 H   0  0  0  0  0  0  0  0  0  0  0  0
   24.7074   43.9404   58.2740 H   0  0  0  0  0  0  0  0  0  0  0  0
   28.4686   44.8072   57.0201 H   0  0  0  0  0  0  0  0  0  0  0  0
   25.3324   45.8852   54.6826 H   0  0  0  0  0  0  0  0  0  0  0  0
   23.4156   43.7353   54.5388 H   0  0  0  0  0  0  0  0  0  0  0  0
  1  2  2  0  0  0  0
  2  3  1  0  0  0  0
  3  4  1  0  0  0  0
  4  5  2  0  0  0  0
  5  6  1  0  0  0  0
  6  7  2  0  0  0  0
  7  8  1  0  0  0  0
  8  9  1  0  0  0  0
  9 10  1  0  0  0  0
  9 11  1  0  0  0  0
  9 12  1  0  0  0  0
  7 13  1  0  0  0  0
 13 14  2  0  0  0  0
  2 15  1  0  0  0  0
 15 16  2  0  0  0  0
 16 17  1  0  0  0  0
 17 18  2  0  0  0  0
 18 19  1  0  0  0  0
 19 20  1  0  0  0  0
 20 21  1  0  0  0  0
 21 22  1  0  0  0  0
 22 23  1  0  0  0  0
 22 24  1  0  0  0  0
 18 25  1  0  0  0  0
 25 26  1  0  0  0  0
 26 27  2  0  0  0  0
 27 28  1  0  0  0  0
 28 29  2  0  0  0  0
 29 30  1  0  0  0  0
 30 31  2  0  0  0  0
 25 32  2  0  0  0  0
 14  4  1  0  0  0  0
 32 15  1  0  0  0  0
 24 19  1  0  0  0  0
 31 26  1  0  0  0  0
  3 33  1  0  0  0  0
  5 34  1  0  0  0  0
  6 35  1  0  0  0  0
 13 36  1  0  0  0  0
 14 37  1  0  0  0  0
 16 38  1  0  0  0  0
 20 39  1  0  0  0  0
 20 40  1  0  0  0  0
 21 41  1  0  0  0  0
 21 42  1  0  0  0  0
 22 43  1  0  0  0  0
 23 44  1  0  0  0  0
 24 45  1  0  0  0  0
 24 46  1  0  0  0  0
 27 47  1  0  0  0  0
 29 48  1  0  0  0  0
 31 49  1  0  0  0  0
 32 50  1  0  0  0  0
M  END
> <BIOSOLVEIT.HYDE_ESTIMATED_AFFINITY_LOWER_BOUNDARY [nM]>
679.840028

> <BIOSOLVEIT.HYDE_ESTIMATED_AFFINITY_UPPER_BOUNDARY [nM]>
67546.126331

> <BIOSOLVEIT.HYDE_LIGAND_EFFICIENCY range: ++, +, 0, -, -->
-

> <BIOSOLVEIT.HYDE_LIGAND_LIPOPHILIC_EFFICIENCY range: ++, +, 0, -, -->
--

> <BIOSOLVEIT.INTER_CLASH range: red, yellow, green>
green

> <BIOSOLVEIT.INTRA_CLASH range: red, yellow, green>
red

> <BIOSOLVEIT.LOGP>
3.2605

> <BIOSOLVEIT.MOLECULAR WEIGHT>
445.399

> <BIOSOLVEIT.MOLECULE_CHECKSUM>
LTI5LjUwNDc7MC45MjIwMjE=

> <BIOSOLVEIT.TORSION_QUALITY range: red, yellow, green, not rotatable>
green

> <BIOSOLVEIT.TPSA>
100.47

$$$$
6HD4_FYW_3
foHydescor03192112293D 1   1.00000     0.00000     0
Hydescorer 1.1.0 fol007
 50 53  0  0  0  0            999 V2000
   20.8466   43.0374   52.6382 O   0  0  0  0  0  0  0  0  0  0  0  0
   20.4163   43.0246   53.8240 C   0  0  0  0  0  0  0  0  0  0  0  0
   19.2297   42.2754   54.1489 N   0  0  0  0  0  0  0  0  0  0  0  0
   18.4746   41.5162   53.1894 C   0  0  0  0  0  0  0  0  0  0  0  0
   18.8261   40.1956   52.9283 C   0  0  0  0  0  0  0  0  0  0  0  0
   18.1011   39.4530   52.0014 C   0  0  0  0  0  0  0  0  0  0  0  0
   17.0285   40.0476   51.3449 C   0  0  0  0  0  0  0  0  0  0  0  0
   16.3178   39.3384   50.4431 O   0  0  0  0  0  0  0  0  0  0  0  0
   16.8733   38.5402   49.4002 C   0  0  0  0  0  0  0  0  0  0  0  0
   17.6637   37.5562   49.9616 F   0  0  0  0  0  0  0  0  0  0  0  0
   15.8632   37.9388   48.6709 F   0  0  0  0  0  0  0  0  0  0  0  0
   17.6562   39.3202   48.5682 F   0  0  0  0  0  0  0  0  0  0  0  0
   16.6702   41.3680   51.5992 C   0  0  0  0  0  0  0  0  0  0  0  0
   17.4003   42.1027   52.5277 C   0  0  0  0  0  0  0  0  0  0  0  0
   21.1310   43.7791   54.8363 C   0  0  0  0  0  0  0  0  0  0  0  0
   20.4627   44.5605   55.7734 C   0  0  0  0  0  0  0  0  0  0  0  0
   21.1384   45.2516   56.7036 N   0  0  0  0  0  0  0  0  0  0  0  0
   22.4781   45.2170   56.7662 C   0  0  0  0  0  0  0  0  0  0  0  0
   23.1519   45.9508   57.7500 N   0  0  0  0  0  0  0  0  0  0  0  0
   23.2277   45.6112   59.1674 C   0  0  0  0  0  0  0  0  0  0  0  0
   23.1231   46.9743   59.8204 C   0  0  0  0  0  0  0  0  0  0  0  0
   23.9223   47.8874   58.9002 C   0  0  2  0  0  0  0  0  0  0  0  0
   23.2818   49.1544   58.8422 O   0  0  0  0  0  0  0  0  0  0  0  0
   23.9037   47.1919   57.5515 C   0  0  0  0  0  0  0  0  0  0  0  0
   23.1980   44.4522   55.8534 C   0  0  0  0  0  0  0  0  0  0  0  0
   24.6464   44.3907   55.8898 C   0  0  0  0  0  0  0  0  0  0  0  0
   25.3171   44.0347   57.0549 C   0  0  0  0  0  0  0  0  0  0  0  0
   26.6567   43.9813   57.0669 N   0  0  0  0  0  0  0  0  0  0  0  0
   27.3732   44.2674   55.9696 C   0  0  0  0  0  0  0  0  0  0  0  0
   26.7502   44.6126   54.8334 N   0  0  0  0  0  0  0  0  0  0  0  0
   25.4136   44.6800   54.7669 C   0  0  0  0  0  0  0  0  0  0  0  0
   22.5202   43.7265   54.8795 C   0  0  0  0  0  0  0  0  0  0  0  0
   18.9125   42.2839   55.0972 H   0  0  0  0  0  0  0  0  0  0  0  0
   19.5996   39.7801   53.4067 H   0  0  0  0  0  0  0  0  0  0  0  0
   18.3482   38.5033   51.8094 H   0  0  0  0  0  0  0  0  0  0  0  0
   15.8970   41.7837   51.1202 H   0  0  0  0  0  0  0  0  0  0  0  0
   17.1531   43.0525   52.7195 H   0  0  0  0  0  0  0  0  0  0  0  0
   19.4640   44.6077   55.7532 H   0  0  0  0  0  0  0  0  0  0  0  0
   24.0958   45.1672   59.3893 H   0  0  0  0  0  0  0  0  0  0  0  0
   22.4705   45.0178   59.4404 H   0  0  0  0  0  0  0  0  0  0  0  0
   23.5195   46.9599   60.7384 H   0  0  0  0  0  0  0  0  0  0  0  0
   22.1694   47.2703   59.8739 H   0  0  0  0  0  0  0  0  0  0  0  0
   24.8608   47.9842   59.2315 H   0  0  0  0  0  0  0  0  0  0  0  0
   23.7487   49.7336   58.1740 H   0  0  0  0  0  0  0  0  0  0  0  0
   24.8359   46.9896   57.2515 H   0  0  0  0  0  0  0  0  0  0  0  0
   23.4515   47.7671   56.8698 H   0  0  0  0  0  0  0  0  0  0  0  0
   24.8004   43.8186   57.8834 H   0  0  0  0  0  0  0  0  0  0  0  0
   28.3718   44.2232   55.9989 H   0  0  0  0  0  0  0  0  0  0  0  0
   24.9680   44.9384   53.9098 H   0  0  0  0  0  0  0  0  0  0  0  0
   23.0260   43.1731   54.2178 H   0  0  0  0  0  0  0  0  0  0  0  0
  1  2  2  0  0  0  0
  2  3  1  0  0  0  0
  3  4  1  0  0  0  0
  4  5  2  0  0  0  0
  5  6  1  0  0  0  0
  6  7  2  0  0  0  0
  7  8  1  0  0  0  0
  8  9  1  0  0  0  0
  9 10  1  0  0  0  0
  9 11  1  0  0  0  0
  9 12  1  0  0  0  0
  7 13  1  0  0  0  0
 13 14  2  0  0  0  0
  2 15  1  0  0  0  0
 15 16  2  0  0  0  0
 16 17  1  0  0  0  0
 17 18  2  0  0  0  0
 18 19  1  0  0  0  0
 19 20  1  0  0  0  0
 20 21  1  0  0  0  0
 21 22  1  0  0  0  0
 22 23  1  0  0  0  0
 22 24  1  0  0  0  0
 18 25  1  0  0  0  0
 25 26  1  0  0  0  0
 26 27  2  0  0  0  0
 27 28  1  0  0  0  0
 28 29  2  0  0  0  0
 29 30  1  0  0  0  0
 30 31  2  0  0  0  0
 25 32  2  0  0  0  0
 14  4  1  0  0  0  0
 32 15  1  0  0  0  0
 24 19  1  0  0  0  0
 31 26  1  0  0  0  0
  3 33  1  0  0  0  0
  5 34  1  0  0  0  0
  6 35  1  0  0  0  0
 13 36  1  0  0  0  0
 14 37  1  0  0  0  0
 16 38  1  0  0  0  0
 20 39  1  0  0  0  0
 20 40  1  0  0  0  0
 21 41  1  0  0  0  0
 21 42  1  0  0  0  0
 22 43  1  0  0  0  0
 23 44  1  0  0  0  0
 24 45  1  0  0  0  0
 24 46  1  0  0  0  0
 27 47  1  0  0  0  0
 29 48  1  0  0  0  0
 31 49  1  0  0  0  0
 32 50  1  0  0  0  0
M  END
> <BIOSOLVEIT.HYDE_ESTIMATED_AFFINITY_LOWER_BOUNDARY [nM]>
1331.641224

> <BIOSOLVEIT.HYDE_ESTIMATED_AFFINITY_UPPER_BOUNDARY [nM]>
132306.428901

> <BIOSOLVEIT.HYDE_LIGAND_EFFICIENCY range: ++, +, 0, -, -->
-

> <BIOSOLVEIT.HYDE_LIGAND_LIPOPHILIC_EFFICIENCY range: ++, +, 0, -, -->
--

> <BIOSOLVEIT.INTER_CLASH range: red, yellow, green>
green

> <BIOSOLVEIT.INTRA_CLASH range: red, yellow, green>
yellow

> <BIOSOLVEIT.LOGP>
3.2605

> <BIOSOLVEIT.MOLECULAR WEIGHT>
445.399

> <BIOSOLVEIT.MOLECULE_CHECKSUM>
LTI3LjgzODE7MC44Njk5Mzk=

> <BIOSOLVEIT.TORSION_QUALITY range: red, yellow, green, not rotatable>
red

> <BIOSOLVEIT.TPSA>
100.47

$$$$
2QOH_P3Y_1
foHydescor03192112293D 1   1.00000     0.00000     0
Hydescorer 1.1.0 fol007
 48 51  0  0  0  0            999 V2000
   20.9800   41.6040   63.3349 C   0  0  0  0  0  0  0  0  0  0  0  0
   20.8594   42.5522   62.2798 O   0  0  0  0  0  0  0  0  0  0  0  0
   20.9289   43.8914   62.4393 C   0  0  0  0  0  0  0  0  0  0  0  0
   21.3768   44.3948   63.6560 C   0  0  0  0  0  0  0  0  0  0  0  0
   21.4597   45.7697   63.8520 C   0  0  0  0  0  0  0  0  0  0  0  0
   21.0943   46.6411   62.8313 C   0  0  0  0  0  0  0  0  0  0  0  0
   20.6465   46.1382   61.6138 C   0  0  0  0  0  0  0  0  0  0  0  0
   20.5633   44.7633   61.4181 C   0  0  0  0  0  0  0  0  0  0  0  0
   20.0958   44.2385   60.1487 C   0  0  0  0  0  0  0  0  0  0  0  0
   18.9764   43.4785   59.9799 C   0  0  0  0  0  0  0  0  0  0  0  0
   18.8883   43.1908   58.6501 N   0  0  0  0  0  0  0  0  0  0  0  0
   19.9454   43.7616   57.9822 C   0  0  0  0  0  0  0  0  0  0  0  0
   20.3357   43.7918   56.6974 N   0  0  0  0  0  0  0  0  0  0  0  0
   21.4383   44.4468   56.3000 C   0  0  0  0  0  0  0  0  0  0  0  0
   22.2433   45.1353   57.2037 C   0  0  0  0  0  0  0  0  0  0  0  0
   23.4396   45.8570   56.8159 C   0  0  0  0  0  0  0  0  0  0  0  0
   24.1758   46.5906   57.7404 C   0  0  0  0  0  0  0  0  0  0  0  0
   25.2802   47.2519   57.3633 N   0  0  0  0  0  0  0  0  0  0  0  0
   25.7099   47.2283   56.0929 C   0  0  0  0  0  0  0  0  0  0  0  0
   25.0121   46.5107   55.1275 C   0  0  0  0  0  0  0  0  0  0  0  0
   25.4686   46.4715   53.7208 C   0  0  0  0  0  0  0  0  0  0  0  0
   25.5616   45.3558   53.1383 O   0  0  0  0  0  0  0  0  0  0  0  0
   25.8142   47.6747   53.0074 N   0  0  0  0  0  0  0  0  0  0  0  0
   27.1097   48.3092   53.2550 C   0  0  0  0  0  0  0  0  0  0  0  0
   24.7722   48.4302   52.3050 C   0  0  0  0  0  0  0  0  0  0  0  0
   23.8635   45.8163   55.4919 C   0  0  0  0  0  0  0  0  0  0  0  0
   21.8701   45.1242   58.5412 C   0  0  0  0  0  0  0  0  0  0  0  0
   20.7197   44.4303   58.8940 C   0  0  0  0  0  0  0  0  0  0  0  0
   20.8941   40.6795   62.9636 H   0  0  0  0  0  0  0  0  0  0  0  0
   21.8728   41.7053   63.7738 H   0  0  0  0  0  0  0  0  0  0  0  0
   20.2576   41.7612   64.0084 H   0  0  0  0  0  0  0  0  0  0  0  0
   21.6393   43.7684   64.3901 H   0  0  0  0  0  0  0  0  0  0  0  0
   21.7819   46.1315   64.7268 H   0  0  0  0  0  0  0  0  0  0  0  0
   21.1534   47.6294   62.9726 H   0  0  0  0  0  0  0  0  0  0  0  0
   20.3846   46.7646   60.8797 H   0  0  0  0  0  0  0  0  0  0  0  0
   18.3411   43.1874   60.6952 H   0  0  0  0  0  0  0  0  0  0  0  0
   18.1646   42.6470   58.2252 H   0  0  0  0  0  0  0  0  0  0  0  0
   21.6874   44.4400   55.3315 H   0  0  0  0  0  0  0  0  0  0  0  0
   23.8790   46.6252   58.6948 H   0  0  0  0  0  0  0  0  0  0  0  0
   26.5369   47.7297   55.8385 H   0  0  0  0  0  0  0  0  0  0  0  0
   27.1945   49.1271   52.6859 H   0  0  0  0  0  0  0  0  0  0  0  0
   27.1763   48.5657   54.2193 H   0  0  0  0  0  0  0  0  0  0  0  0
   27.8433   47.6683   53.0291 H   0  0  0  0  0  0  0  0  0  0  0  0
   25.1797   49.2310   51.8661 H   0  0  0  0  0  0  0  0  0  0  0  0
   24.3495   47.8483   51.6103 H   0  0  0  0  0  0  0  0  0  0  0  0
   24.0769   48.7266   52.9597 H   0  0  0  0  0  0  0  0  0  0  0  0
   23.3493   45.2947   54.8111 H   0  0  0  0  0  0  0  0  0  0  0  0
   22.4141   45.6023   59.2308 H   0  0  0  0  0  0  0  0  0  0  0  0
  1  2  1  0  0  0  0
  2  3  1  0  0  0  0
  3  4  2  0  0  0  0
  4  5  1  0  0  0  0
  5  6  2  0  0  0  0
  6  7  1  0  0  0  0
  7  8  2  0  0  0  0
  8  9  1  0  0  0  0
  9 10  2  0  0  0  0
 10 11  1  0  0  0  0
 11 12  1  0  0  0  0
 12 13  2  0  0  0  0
 13 14  1  0  0  0  0
 14 15  2  0  0  0  0
 15 16  1  0  0  0  0
 16 17  2  0  0  0  0
 17 18  1  0  0  0  0
 18 19  2  0  0  0  0
 19 20  1  0  0  0  0
 20 21  1  0  0  0  0
 21 22  2  0  0  0  0
 21 23  1  0  0  0  0
 23 24  1  0  0  0  0
 23 25  1  0  0  0  0
 20 26  2  0  0  0  0
 15 27  1  0  0  0  0
 27 28  2  0  0  0  0
  8  3  1  0  0  0  0
 28  9  1  0  0  0  0
 28 12  1  0  0  0  0
 26 16  1  0  0  0  0
  1 29  1  0  0  0  0
  1 30  1  0  0  0  0
  1 31  1  0  0  0  0
  4 32  1  0  0  0  0
  5 33  1  0  0  0  0
  6 34  1  0  0  0  0
  7 35  1  0  0  0  0
 10 36  1  0  0  0  0
 11 37  1  0  0  0  0
 14 38  1  0  0  0  0
 17 39  1  0  0  0  0
 19 40  1  0  0  0  0
 24 41  1  0  0  0  0
 24 42  1  0  0  0  0
 24 43  1  0  0  0  0
 25 44  1  0  0  0  0
 25 45  1  0  0  0  0
 25 46  1  0  0  0  0
 26 47  1  0  0  0  0
 27 48  1  0  0  0  0
M  END
> <BIOSOLVEIT.HYDE_ESTIMATED_AFFINITY_LOWER_BOUNDARY [nM]>
307166.311491

> <BIOSOLVEIT.HYDE_ESTIMATED_AFFINITY_UPPER_BOUNDARY [nM]>
30518789.157639

> <BIOSOLVEIT.HYDE_LIGAND_EFFICIENCY range: ++, +, 0, -, -->
--

> <BIOSOLVEIT.HYDE_LIGAND_LIPOPHILIC_EFFICIENCY range: ++, +, 0, -, -->
--

> <BIOSOLVEIT.INTER_CLASH range: red, yellow, green>
green

> <BIOSOLVEIT.INTRA_CLASH range: red, yellow, green>
green

> <BIOSOLVEIT.LOGP>
4.0023

> <BIOSOLVEIT.MOLECULAR WEIGHT>
372.426

> <BIOSOLVEIT.MOLECULE_CHECKSUM>
LTE0LjM1MDE7MC41MTI1MDQ=

> <BIOSOLVEIT.TORSION_QUALITY range: red, yellow, green, not rotatable>
yellow

> <BIOSOLVEIT.TPSA>
71.11

$$$$
2QOH_P3Y_2
foHydescor03192112293D 1   1.00000     0.00000     0
Hydescorer 1.1.0 fol007
 48 51  0  0  0  0            999 V2000
   25.5667   47.8382   53.0987 C   0  0  0  0  0  0  0  0  0  0  0  0
   25.1744   46.5772   53.6308 O   0  0  0  0  0  0  0  0  0  0  0  0
   25.9467   45.8055   54.4255 C   0  0  0  0  0  0  0  0  0  0  0  0
   27.2245   46.2504   54.7476 C   0  0  0  0  0  0  0  0  0  0  0  0
   28.0448   45.4782   55.5641 C   0  0  0  0  0  0  0  0  0  0  0  0
   27.5873   44.2612   56.0582 C   0  0  0  0  0  0  0  0  0  0  0  0
   26.3090   43.8158   55.7368 C   0  0  0  0  0  0  0  0  0  0  0  0
   25.4890   44.5877   54.9199 C   0  0  0  0  0  0  0  0  0  0  0  0
   24.1566   44.1234   54.5841 C   0  0  0  0  0  0  0  0  0  0  0  0
   23.8229   43.4624   53.4391 C   0  0  0  0  0  0  0  0  0  0  0  0
   22.4859   43.2036   53.5051 N   0  0  0  0  0  0  0  0  0  0  0  0
   21.9762   43.6994   54.6814 C   0  0  0  0  0  0  0  0  0  0  0  0
   20.7540   43.7197   55.2380 N   0  0  0  0  0  0  0  0  0  0  0  0
   20.5227   44.2805   56.4359 C   0  0  0  0  0  0  0  0  0  0  0  0
   21.5438   44.8759   57.1719 C   0  0  0  0  0  0  0  0  0  0  0  0
   21.3369   45.4908   58.4722 C   0  0  0  0  0  0  0  0  0  0  0  0
   22.1727   46.5003   58.9382 C   0  0  0  0  0  0  0  0  0  0  0  0
   21.9662   47.0566   60.1412 N   0  0  0  0  0  0  0  0  0  0  0  0
   20.9549   46.6626   60.9296 C   0  0  0  0  0  0  0  0  0  0  0  0
   20.0890   45.6572   60.5132 C   0  0  0  0  0  0  0  0  0  0  0  0
   18.9900   45.2166   61.3499 C   0  0  0  0  0  0  0  0  0  0  0  0
   17.9696   44.7132   60.8048 O   0  0  0  0  0  0  0  0  0  0  0  0
   19.0359   45.3474   62.7841 N   0  0  0  0  0  0  0  0  0  0  0  0
   20.0519   44.6135   63.5397 C   0  0  0  0  0  0  0  0  0  0  0  0
   17.8960   45.9292   63.4996 C   0  0  0  0  0  0  0  0  0  0  0  0
   20.2810   45.0637   59.2701 C   0  0  0  0  0  0  0  0  0  0  0  0
   22.8206   44.8739   56.6258 C   0  0  0  0  0  0  0  0  0  0  0  0
   23.0003   44.2791   55.3835 C   0  0  0  0  0  0  0  0  0  0  0  0
   24.8236   48.2113   52.5432 H   0  0  0  0  0  0  0  0  0  0  0  0
   25.7707   48.4674   53.8487 H   0  0  0  0  0  0  0  0  0  0  0  0
   26.3814   47.7213   52.5306 H   0  0  0  0  0  0  0  0  0  0  0  0
   27.5537   47.1253   54.3922 H   0  0  0  0  0  0  0  0  0  0  0  0
   28.9634   45.7983   55.7959 H   0  0  0  0  0  0  0  0  0  0  0  0
   28.1773   43.7062   56.6447 H   0  0  0  0  0  0  0  0  0  0  0  0
   25.9799   42.9412   56.0928 H   0  0  0  0  0  0  0  0  0  0  0  0
   24.4411   43.2147   52.6931 H   0  0  0  0  0  0  0  0  0  0  0  0
   21.9565   42.7256   52.8042 H   0  0  0  0  0  0  0  0  0  0  0  0
   19.5948   44.2704   56.8084 H   0  0  0  0  0  0  0  0  0  0  0  0
   22.9344   46.8143   58.3713 H   0  0  0  0  0  0  0  0  0  0  0  0
   20.8230   47.0943   61.8220 H   0  0  0  0  0  0  0  0  0  0  0  0
   19.9494   44.8106   64.5147 H   0  0  0  0  0  0  0  0  0  0  0  0
   19.9385   43.6321   63.3844 H   0  0  0  0  0  0  0  0  0  0  0  0
   20.9618   44.8961   63.2364 H   0  0  0  0  0  0  0  0  0  0  0  0
   18.0913   45.9459   64.4802 H   0  0  0  0  0  0  0  0  0  0  0  0
   17.7396   46.8621   63.1750 H   0  0  0  0  0  0  0  0  0  0  0  0
   17.0798   45.3765   63.3316 H   0  0  0  0  0  0  0  0  0  0  0  0
   19.6680   44.3395   58.9542 H   0  0  0  0  0  0  0  0  0  0  0  0
   23.5888   45.2890   57.1131 H   0  0  0  0  0  0  0  0  0  0  0  0
  1  2  1  0  0  0  0
  2  3  1  0  0  0  0
  3  4  2  0  0  0  0
  4  5  1  0  0  0  0
  5  6  2  0  0  0  0
  6  7  1  0  0  0  0
  7  8  2  0  0  0  0
  8  9  1  0  0  0  0
  9 10  2  0  0  0  0
 10 11  1  0  0  0  0
 11 12  1  0  0  0  0
 12 13  2  0  0  0  0
 13 14  1  0  0  0  0
 14 15  2  0  0  0  0
 15 16  1  0  0  0  0
 16 17  2  0  0  0  0
 17 18  1  0  0  0  0
 18 19  2  0  0  0  0
 19 20  1  0  0  0  0
 20 21  1  0  0  0  0
 21 22  2  0  0  0  0
 21 23  1  0  0  0  0
 23 24  1  0  0  0  0
 23 25  1  0  0  0  0
 20 26  2  0  0  0  0
 15 27  1  0  0  0  0
 27 28  2  0  0  0  0
  8  3  1  0  0  0  0
 28  9  1  0  0  0  0
 28 12  1  0  0  0  0
 26 16  1  0  0  0  0
  1 29  1  0  0  0  0
  1 30  1  0  0  0  0
  1 31  1  0  0  0  0
  4 32  1  0  0  0  0
  5 33  1  0  0  0  0
  6 34  1  0  0  0  0
  7 35  1  0  0  0  0
 10 36  1  0  0  0  0
 11 37  1  0  0  0  0
 14 38  1  0  0  0  0
 17 39  1  0  0  0  0
 19 40  1  0  0  0  0
 24 41  1  0  0  0  0
 24 42  1  0  0  0  0
 24 43  1  0  0  0  0
 25 44  1  0  0  0  0
 25 45  1  0  0  0  0
 25 46  1  0  0  0  0
 26 47  1  0  0  0  0
 27 48  1  0  0  0  0
M  END
> <BIOSOLVEIT.HYDE_ESTIMATED_AFFINITY_LOWER_BOUNDARY [nM]>
1139596.620370

> <BIOSOLVEIT.HYDE_ESTIMATED_AFFINITY_UPPER_BOUNDARY [nM]>
113225662.062254

> <BIOSOLVEIT.HYDE_LIGAND_EFFICIENCY range: ++, +, 0, -, -->
--

> <BIOSOLVEIT.HYDE_LIGAND_LIPOPHILIC_EFFICIENCY range: ++, +, 0, -, -->
--

> <BIOSOLVEIT.INTER_CLASH range: red, yellow, green>
green

> <BIOSOLVEIT.INTRA_CLASH range: red, yellow, green>
green

> <BIOSOLVEIT.LOGP>
4.0023

> <BIOSOLVEIT.MOLECULAR WEIGHT>
372.426

> <BIOSOLVEIT.MOLECULE_CHECKSUM>
LTExLjEwMDE7MC4zOTY0MzI=

> <BIOSOLVEIT.TORSION_QUALITY range: red, yellow, green, not rotatable>
yellow

> <BIOSOLVEIT.TPSA>
71.11

$$$$
2QOH_P3Y_3
foHydescor03192112293D 1   1.00000     0.00000     0
Hydescorer 1.1.0 fol007
 49 52  0  0  0  0            999 V2000
   15.6137   39.2105   52.1409 C   0  0  0  0  0  0  0  0  0  0  0  0
   16.5716   40.2359   52.3822 O   0  0  0  0  0  0  0  0  0  0  0  0
   17.6734   40.4494   51.6313 C   0  0  0  0  0  0  0  0  0  0  0  0
   17.8832   39.6484   50.5138 C   0  0  0  0  0  0  0  0  0  0  0  0
   19.0089   39.8431   49.7196 C   0  0  0  0  0  0  0  0  0  0  0  0
   19.9249   40.8387   50.0434 C   0  0  0  0  0  0  0  0  0  0  0  0
   19.7153   41.6405   51.1608 C   0  0  0  0  0  0  0  0  0  0  0  0
   18.5897   41.4455   51.9551 C   0  0  0  0  0  0  0  0  0  0  0  0
   18.3713   42.2812   53.1210 C   0  0  0  0  0  0  0  0  0  0  0  0
   17.1532   42.5647   53.6643 C   0  0  0  0  0  0  0  0  0  0  0  0
   17.3759   43.3749   54.7380 N   0  0  0  0  0  0  0  0  0  0  0  0
   18.7245   43.6052   54.8719 C   0  0  0  0  0  0  0  0  0  0  0  0
   19.4731   44.3123   55.7341 N   0  3  0  0  0  0  0  0  0  0  0  0
   20.8114   44.3673   55.6413 C   0  0  0  0  0  0  0  0  0  0  0  0
   21.5015   43.6900   54.6394 C   0  0  0  0  0  0  0  0  0  0  0  0
   22.9450   43.7209   54.5056 C   0  0  0  0  0  0  0  0  0  0  0  0
   23.5695   43.3864   53.3085 C   0  0  0  0  0  0  0  0  0  0  0  0
   24.9065   43.4209   53.2032 N   0  0  0  0  0  0  0  0  0  0  0  0
   25.6807   43.7766   54.2391 C   0  0  0  0  0  0  0  0  0  0  0  0
   25.1086   44.1208   55.4592 C   0  0  0  0  0  0  0  0  0  0  0  0
   25.9440   44.5159   56.6143 C   0  0  0  0  0  0  0  0  0  0  0  0
   25.5682   44.2017   57.7774 O   0  0  0  0  0  0  0  0  0  0  0  0
   27.1687   45.2547   56.4405 N   0  0  0  0  0  0  0  0  0  0  0  0
   27.1098   46.6471   55.9935 C   0  0  0  0  0  0  0  0  0  0  0  0
   28.4487   44.5416   56.3869 C   0  0  0  0  0  0  0  0  0  0  0  0
   23.7248   44.0932   55.5953 C   0  0  0  0  0  0  0  0  0  0  0  0
   20.7587   42.9495   53.7293 C   0  0  0  0  0  0  0  0  0  0  0  0
   19.3775   42.9291   53.8747 C   0  0  0  0  0  0  0  0  0  0  0  0
   14.8927   39.2585   52.8321 H   0  0  0  0  0  0  0  0  0  0  0  0
   15.2138   39.3349   51.2328 H   0  0  0  0  0  0  0  0  0  0  0  0
   16.0620   38.3178   52.1882 H   0  0  0  0  0  0  0  0  0  0  0  0
   17.2250   38.9325   50.2811 H   0  0  0  0  0  0  0  0  0  0  0  0
   19.1595   39.2674   48.9161 H   0  0  0  0  0  0  0  0  0  0  0  0
   20.7343   40.9781   49.4727 H   0  0  0  0  0  0  0  0  0  0  0  0
   20.3733   42.3568   51.3931 H   0  0  0  0  0  0  0  0  0  0  0  0
   16.2656   42.2401   53.3375 H   0  0  0  0  0  0  0  0  0  0  0  0
   16.6661   43.7453   55.3371 H   0  0  0  0  0  0  0  0  0  0  0  0
   21.3249   44.9078   56.3078 H   0  0  0  0  0  0  0  0  0  0  0  0
   23.0170   43.1179   52.5195 H   0  0  0  0  0  0  0  0  0  0  0  0
   26.6750   43.7944   54.1336 H   0  0  0  0  0  0  0  0  0  0  0  0
   28.0374   47.0142   55.9232 H   0  0  0  0  0  0  0  0  0  0  0  0
   26.6651   46.6915   55.0990 H   0  0  0  0  0  0  0  0  0  0  0  0
   26.5868   47.1871   56.6530 H   0  0  0  0  0  0  0  0  0  0  0  0
   29.1918   45.1993   56.2634 H   0  0  0  0  0  0  0  0  0  0  0  0
   28.5865   44.0395   57.2407 H   0  0  0  0  0  0  0  0  0  0  0  0
   28.4408   43.8997   55.6202 H   0  0  0  0  0  0  0  0  0  0  0  0
   23.2962   44.3378   56.4650 H   0  0  0  0  0  0  0  0  0  0  0  0
   21.2055   42.4453   52.9903 H   0  0  0  0  0  0  0  0  0  0  0  0
   19.0185   44.8145   56.4697 H   0  0  0  0  0  0  0  0  0  0  0  0
  1  2  1  0  0  0  0
  2  3  1  0  0  0  0
  3  4  2  0  0  0  0
  4  5  1  0  0  0  0
  5  6  2  0  0  0  0
  6  7  1  0  0  0  0
  7  8  2  0  0  0  0
  8  9  1  0  0  0  0
  9 10  2  0  0  0  0
 10 11  1  0  0  0  0
 11 12  1  0  0  0  0
 12 13  2  0  0  0  0
 13 14  1  0  0  0  0
 14 15  2  0  0  0  0
 15 16  1  0  0  0  0
 16 17  2  0  0  0  0
 17 18  1  0  0  0  0
 18 19  2  0  0  0  0
 19 20  1  0  0  0  0
 20 21  1  0  0  0  0
 21 22  2  0  0  0  0
 21 23  1  0  0  0  0
 23 24  1  0  0  0  0
 23 25  1  0  0  0  0
 20 26  2  0  0  0  0
 15 27  1  0  0  0  0
 27 28  2  0  0  0  0
  8  3  1  0  0  0  0
 28  9  1  0  0  0  0
 28 12  1  0  0  0  0
 26 16  1  0  0  0  0
  1 29  1  0  0  0  0
  1 30  1  0  0  0  0
  1 31  1  0  0  0  0
  4 32  1  0  0  0  0
  5 33  1  0  0  0  0
  6 34  1  0  0  0  0
  7 35  1  0  0  0  0
 10 36  1  0  0  0  0
 11 37  1  0  0  0  0
 14 38  1  0  0  0  0
 17 39  1  0  0  0  0
 19 40  1  0  0  0  0
 24 41  1  0  0  0  0
 24 42  1  0  0  0  0
 24 43  1  0  0  0  0
 25 44  1  0  0  0  0
 25 45  1  0  0  0  0
 25 46  1  0  0  0  0
 26 47  1  0  0  0  0
 27 48  1  0  0  0  0
 13 49  1  0  0  0  0
M  CHG  1  13   1
M  END
> <BIOSOLVEIT.HYDE_ESTIMATED_AFFINITY_LOWER_BOUNDARY [nM]>
735.473039

> <BIOSOLVEIT.HYDE_ESTIMATED_AFFINITY_UPPER_BOUNDARY [nM]>
73073.594921

> <BIOSOLVEIT.HYDE_LIGAND_EFFICIENCY range: ++, +, 0, -, -->
-

> <BIOSOLVEIT.HYDE_LIGAND_LIPOPHILIC_EFFICIENCY range: ++, +, 0, -, -->
--

> <BIOSOLVEIT.INTER_CLASH range: red, yellow, green>
yellow

> <BIOSOLVEIT.INTRA_CLASH range: red, yellow, green>
red

> <BIOSOLVEIT.LOGP>
3.4214

> <BIOSOLVEIT.MOLECULAR WEIGHT>
373.434

> <BIOSOLVEIT.MOLECULE_CHECKSUM>
LTI5LjMwOTc7MS4wNDY3Nw==

> <BIOSOLVEIT.TORSION_QUALITY range: red, yellow, green, not rotatable>
red

> <BIOSOLVEIT.TPSA>
72.36

$$$$
3MS9_MS9_1
foHydescor03192112293D 1   1.00000     0.00000     0
Hydescorer 1.1.0 fol007
 20 20  0  0  0  0            999 V2000
   17.1462   41.0423   51.2948 C   0  0  0  0  0  0  0  0  0  0  0  0
   18.2980   41.6322   51.8853 O   0  0  0  0  0  0  0  0  0  0  0  0
   18.2309   42.4505   53.0176 C   0  0  0  0  0  0  0  0  0  0  0  0
   17.1204   42.6643   53.5782 O   0  0  0  0  0  0  0  0  0  0  0  0
   19.4425   43.0089   53.5861 C   0  0  0  0  0  0  0  0  0  0  0  0
   20.6420   42.8298   52.9038 C   0  0  0  0  0  0  0  0  0  0  0  0
   21.8221   43.3534   53.4221 C   0  0  0  0  0  0  0  0  0  0  0  0
   21.7902   44.0538   54.6237 C   0  0  0  0  0  0  0  0  0  0  0  0
   23.2974   44.7257   55.2918 Cl  0  0  0  0  0  0  0  0  0  0  0  0
   20.5945   44.2365   55.3111 C   0  0  0  0  0  0  0  0  0  0  0  0
   19.4175   43.7109   54.7876 C   0  0  0  0  0  0  0  0  0  0  0  0
   18.2236   43.9047   55.4932 N   0  0  0  0  0  0  0  0  0  0  0  0
   17.4197   40.4995   50.5006 H   0  0  0  0  0  0  0  0  0  0  0  0
   16.6947   40.4511   51.9631 H   0  0  0  0  0  0  0  0  0  0  0  0
   16.5145   41.7615   51.0055 H   0  0  0  0  0  0  0  0  0  0  0  0
   20.6557   42.3247   52.0408 H   0  0  0  0  0  0  0  0  0  0  0  0
   22.6862   43.2272   52.9350 H   0  0  0  0  0  0  0  0  0  0  0  0
   20.5812   44.7413   56.1742 H   0  0  0  0  0  0  0  0  0  0  0  0
   17.3679   43.5246   55.1421 H   0  0  0  0  0  0  0  0  0  0  0  0
   18.2266   44.4234   56.3483 H   0  0  0  0  0  0  0  0  0  0  0  0
  1  2  1  0  0  0  0
  2  3  1  0  0  0  0
  3  4  2  0  0  0  0
  3  5  1  0  0  0  0
  5  6  2  0  0  0  0
  6  7  1  0  0  0  0
  7  8  2  0  0  0  0
  8  9  1  0  0  0  0
  8 10  1  0  0  0  0
 10 11  2  0  0  0  0
 11 12  1  0  0  0  0
 11  5  1  0  0  0  0
  1 13  1  0  0  0  0
  1 14  1  0  0  0  0
  1 15  1  0  0  0  0
  6 16  1  0  0  0  0
  7 17  1  0  0  0  0
 10 18  1  0  0  0  0
 12 19  1  0  0  0  0
 12 20  1  0  0  0  0
M  END
> <BIOSOLVEIT.HYDE_ESTIMATED_AFFINITY_LOWER_BOUNDARY [nM]>
16016.681412

> <BIOSOLVEIT.HYDE_ESTIMATED_AFFINITY_UPPER_BOUNDARY [nM]>
1591351.996377

> <BIOSOLVEIT.HYDE_LIGAND_EFFICIENCY range: ++, +, 0, -, -->
+

> <BIOSOLVEIT.HYDE_LIGAND_LIPOPHILIC_EFFICIENCY range: ++, +, 0, -, -->
-

> <BIOSOLVEIT.INTER_CLASH range: red, yellow, green>
green

> <BIOSOLVEIT.INTRA_CLASH range: red, yellow, green>
green

> <BIOSOLVEIT.LOGP>
1.7088

> <BIOSOLVEIT.MOLECULAR WEIGHT>
185.609

> <BIOSOLVEIT.MOLECULE_CHECKSUM>
LTIxLjY3MjM7MS44MDYwMw==

> <BIOSOLVEIT.TORSION_QUALITY range: red, yellow, green, not rotatable>
green

> <BIOSOLVEIT.TPSA>
52.32

$$$$
3MS9_MS9_2
foHydescor03192112293D 1   1.00000     0.00000     0
Hydescorer 1.1.0 fol007
 20 20  0  0  0  0            999 V2000
   19.3155   41.5183   51.1245 C   0  0  0  0  0  0  0  0  0  0  0  0
   20.3567   42.1245   51.8806 O   0  0  0  0  0  0  0  0  0  0  0  0
   20.1465   42.6760   53.1486 C   0  0  0  0  0  0  0  0  0  0  0  0
   19.0001   42.6324   53.6749 O   0  0  0  0  0  0  0  0  0  0  0  0
   21.2557   43.2475   53.8878 C   0  0  0  0  0  0  0  0  0  0  0  0
   22.4087   43.5983   53.1924 C   0  0  0  0  0  0  0  0  0  0  0  0
   23.4905   44.1492   53.8720 C   0  0  0  0  0  0  0  0  0  0  0  0
   23.4073   44.3441   55.2470 C   0  0  0  0  0  0  0  0  0  0  0  0
   24.7887   45.0484   56.1218 Cl  0  0  0  0  0  0  0  0  0  0  0  0
   22.2576   43.9955   55.9485 C   0  0  0  0  0  0  0  0  0  0  0  0
   21.1789   43.4452   55.2633 C   0  0  0  0  0  0  0  0  0  0  0  0
   20.0299   43.1006   55.9858 N   0  0  0  0  0  0  0  0  0  0  0  0
   19.6826   41.1923   50.2533 H   0  0  0  0  0  0  0  0  0  0  0  0
   18.9373   40.7469   51.6365 H   0  0  0  0  0  0  0  0  0  0  0  0
   18.5945   42.1895   50.9522 H   0  0  0  0  0  0  0  0  0  0  0  0
   22.4598   43.4544   52.2042 H   0  0  0  0  0  0  0  0  0  0  0  0
   24.3209   44.4030   53.3762 H   0  0  0  0  0  0  0  0  0  0  0  0
   22.2068   44.1391   56.9367 H   0  0  0  0  0  0  0  0  0  0  0  0
   19.1502   43.0196   55.5172 H   0  0  0  0  0  0  0  0  0  0  0  0
   20.0891   42.9356   56.9704 H   0  0  0  0  0  0  0  0  0  0  0  0
  1  2  1  0  0  0  0
  2  3  1  0  0  0  0
  3  4  2  0  0  0  0
  3  5  1  0  0  0  0
  5  6  2  0  0  0  0
  6  7  1  0  0  0  0
  7  8  2  0  0  0  0
  8  9  1  0  0  0  0
  8 10  1  0  0  0  0
 10 11  2  0  0  0  0
 11 12  1  0  0  0  0
 11  5  1  0  0  0  0
  1 13  1  0  0  0  0
  1 14  1  0  0  0  0
  1 15  1  0  0  0  0
  6 16  1  0  0  0  0
  7 17  1  0  0  0  0
 10 18  1  0  0  0  0
 12 19  1  0  0  0  0
 12 20  1  0  0  0  0
M  END
> <BIOSOLVEIT.HYDE_ESTIMATED_AFFINITY_LOWER_BOUNDARY [nM]>
1619808.491824

> <BIOSOLVEIT.HYDE_ESTIMATED_AFFINITY_UPPER_BOUNDARY [nM]>
160937550.728439

> <BIOSOLVEIT.HYDE_LIGAND_EFFICIENCY range: ++, +, 0, -, -->
-

> <BIOSOLVEIT.HYDE_LIGAND_LIPOPHILIC_EFFICIENCY range: ++, +, 0, -, -->
--

> <BIOSOLVEIT.INTER_CLASH range: red, yellow, green>
green

> <BIOSOLVEIT.INTRA_CLASH range: red, yellow, green>
green

> <BIOSOLVEIT.LOGP>
1.7088

> <BIOSOLVEIT.MOLECULAR WEIGHT>
185.609

> <BIOSOLVEIT.MOLECULE_CHECKSUM>
LTEwLjIyODQ7MC44NTIzNjc=

> <BIOSOLVEIT.TORSION_QUALITY range: red, yellow, green, not rotatable>
green

> <BIOSOLVEIT.TPSA>
52.32

$$$$
3MS9_MS9_3
foHydescor03192112293D 1   1.00000     0.00000     0
Hydescorer 1.1.0 fol007
 20 20  0  0  0  0            999 V2000
   17.1460   41.0430   51.2942 C   0  0  0  0  0  0  0  0  0  0  0  0
   18.2979   41.6328   51.8848 O   0  0  0  0  0  0  0  0  0  0  0  0
   18.2308   42.4508   53.0174 C   0  0  0  0  0  0  0  0  0  0  0  0
   17.1204   42.6642   53.5782 O   0  0  0  0  0  0  0  0  0  0  0  0
   19.4425   43.0091   53.5860 C   0  0  0  0  0  0  0  0  0  0  0  0
   20.6420   42.8298   52.9037 C   0  0  0  0  0  0  0  0  0  0  0  0
   21.8221   43.3532   53.4220 C   0  0  0  0  0  0  0  0  0  0  0  0
   21.7903   44.0537   54.6237 C   0  0  0  0  0  0  0  0  0  0  0  0
   23.2975   44.7254   55.2919 Cl  0  0  0  0  0  0  0  0  0  0  0  0
   20.5946   44.2364   55.3110 C   0  0  0  0  0  0  0  0  0  0  0  0
   19.4175   43.7108   54.7875 C   0  0  0  0  0  0  0  0  0  0  0  0
   18.2236   43.9048   55.4931 N   0  0  0  0  0  0  0  0  0  0  0  0
   17.4194   40.5006   50.4999 H   0  0  0  0  0  0  0  0  0  0  0  0
   16.6947   40.4515   51.9624 H   0  0  0  0  0  0  0  0  0  0  0  0
   16.5142   41.7623   51.0052 H   0  0  0  0  0  0  0  0  0  0  0  0
   20.6556   42.3248   52.0407 H   0  0  0  0  0  0  0  0  0  0  0  0
   22.6862   43.2270   52.9347 H   0  0  0  0  0  0  0  0  0  0  0  0
   20.5812   44.7411   56.1742 H   0  0  0  0  0  0  0  0  0  0  0  0
   17.3679   43.5246   55.1420 H   0  0  0  0  0  0  0  0  0  0  0  0
   18.2267   44.4234   56.3481 H   0  0  0  0  0  0  0  0  0  0  0  0
  1  2  1  0  0  0  0
  2  3  1  0  0  0  0
  3  4  2  0  0  0  0
  3  5  1  0  0  0  0
  5  6  2  0  0  0  0
  6  7  1  0  0  0  0
  7  8  2  0  0  0  0
  8  9  1  0  0  0  0
  8 10  1  0  0  0  0
 10 11  2  0  0  0  0
 11 12  1  0  0  0  0
 11  5  1  0  0  0  0
  1 13  1  0  0  0  0
  1 14  1  0  0  0  0
  1 15  1  0  0  0  0
  6 16  1  0  0  0  0
  7 17  1  0  0  0  0
 10 18  1  0  0  0  0
 12 19  1  0  0  0  0
 12 20  1  0  0  0  0
M  END
> <BIOSOLVEIT.HYDE_ESTIMATED_AFFINITY_LOWER_BOUNDARY [nM]>
16030.882542

> <BIOSOLVEIT.HYDE_ESTIMATED_AFFINITY_UPPER_BOUNDARY [nM]>
1592762.962587

> <BIOSOLVEIT.HYDE_LIGAND_EFFICIENCY range: ++, +, 0, -, -->
+

> <BIOSOLVEIT.HYDE_LIGAND_LIPOPHILIC_EFFICIENCY range: ++, +, 0, -, -->
-

> <BIOSOLVEIT.INTER_CLASH range: red, yellow, green>
green

> <BIOSOLVEIT.INTRA_CLASH range: red, yellow, green>
green

> <BIOSOLVEIT.LOGP>
1.7088

> <BIOSOLVEIT.MOLECULAR WEIGHT>
185.609

> <BIOSOLVEIT.MOLECULE_CHECKSUM>
LTIxLjY3MDE7MS44MDU4NQ==

> <BIOSOLVEIT.TORSION_QUALITY range: red, yellow, green, not rotatable>
green

> <BIOSOLVEIT.TPSA>
52.32

$$$$
3K5V_STJ_1
foHydescor03192112293D 1   1.00000     0.00000     0
Hydescorer 1.1.0 fol007
 40 42  0  0  0  0            999 V2000
   20.2151   42.5561   63.5308 N   0  0  0  0  0  0  0  0  0  0  0  0
   20.8381   42.9345   62.3002 C   0  0  0  0  0  0  0  0  0  0  0  0
   22.0949   43.0294   62.2591 O   0  0  0  0  0  0  0  0  0  0  0  0
   20.0414   43.1998   61.0768 C   0  0  0  0  0  0  0  0  0  0  0  0
   18.6541   43.2651   61.1549 C   0  0  0  0  0  0  0  0  0  0  0  0
   17.9237   43.5147   59.9974 C   0  0  0  0  0  0  0  0  0  0  0  0
   18.5606   43.6976   58.7744 C   0  0  0  0  0  0  0  0  0  0  0  0
   19.9492   43.6284   58.7195 C   0  0  0  0  0  0  0  0  0  0  0  0
   20.6239   43.8181   57.4495 C   0  0  0  0  0  0  0  0  0  0  0  0
   19.8712   43.8430   56.2801 C   0  0  0  0  0  0  0  0  0  0  0  0
   20.5283   44.0252   55.0676 C   0  0  0  0  0  0  0  0  0  0  0  0
   19.7802   44.0513   53.8836 N   0  0  0  0  0  0  0  0  0  0  0  0
   19.4915   42.8887   53.0886 C   0  0  0  0  0  0  0  0  0  0  0  0
   18.3570   42.1321   53.3643 C   0  0  0  0  0  0  0  0  0  0  0  0
   18.0694   41.0054   52.6001 C   0  0  0  0  0  0  0  0  0  0  0  0
   18.9279   40.6501   51.5649 C   0  0  0  0  0  0  0  0  0  0  0  0
   18.6606   39.5592   50.8168 O   0  0  0  0  0  0  0  0  0  0  0  0
   17.3935   39.2431   50.2443 C   0  0  0  0  0  0  0  0  0  0  0  0
   16.9966   40.2479   49.3799 F   0  0  0  0  0  0  0  0  0  0  0  0
   16.4598   39.1317   51.2560 F   0  0  0  0  0  0  0  0  0  0  0  0
   17.4634   38.0386   49.5675 F   0  0  0  0  0  0  0  0  0  0  0  0
   20.0653   41.4006   51.2822 C   0  0  0  0  0  0  0  0  0  0  0  0
   20.3447   42.5255   52.0510 C   0  0  0  0  0  0  0  0  0  0  0  0
   21.8621   44.1713   55.0623 N   0  0  0  0  0  0  0  0  0  0  0  0
   22.5749   44.1451   56.1985 C   0  0  0  0  0  0  0  0  0  0  0  0
   21.9548   43.9699   57.3752 N   0  0  0  0  0  0  0  0  0  0  0  0
   20.6992   43.3799   59.8645 C   0  0  0  0  0  0  0  0  0  0  0  0
   19.6195   43.2016   64.0089 H   0  0  0  0  0  0  0  0  0  0  0  0
   20.3752   41.6461   63.9132 H   0  0  0  0  0  0  0  0  0  0  0  0
   18.1885   43.1345   62.0302 H   0  0  0  0  0  0  0  0  0  0  0  0
   16.9261   43.5635   60.0453 H   0  0  0  0  0  0  0  0  0  0  0  0
   18.0283   43.8761   57.9468 H   0  0  0  0  0  0  0  0  0  0  0  0
   18.8778   43.7321   56.3104 H   0  0  0  0  0  0  0  0  0  0  0  0
   19.4252   44.9328   53.5722 H   0  0  0  0  0  0  0  0  0  0  0  0
   17.7481   42.3980   54.1118 H   0  0  0  0  0  0  0  0  0  0  0  0
   17.2554   40.4576   52.7928 H   0  0  0  0  0  0  0  0  0  0  0  0
   20.6745   41.1342   50.5353 H   0  0  0  0  0  0  0  0  0  0  0  0
   21.1587   43.0733   51.8581 H   0  0  0  0  0  0  0  0  0  0  0  0
   23.5683   44.2562   56.1684 H   0  0  0  0  0  0  0  0  0  0  0  0
   21.6969   43.3314   59.8168 H   0  0  0  0  0  0  0  0  0  0  0  0
  1  2  1  0  0  0  0
  2  3  2  0  0  0  0
  2  4  1  0  0  0  0
  4  5  2  0  0  0  0
  5  6  1  0  0  0  0
  6  7  2  0  0  0  0
  7  8  1  0  0  0  0
  8  9  1  0  0  0  0
  9 10  2  0  0  0  0
 10 11  1  0  0  0  0
 11 12  1  0  0  0  0
 12 13  1  0  0  0  0
 13 14  2  0  0  0  0
 14 15  1  0  0  0  0
 15 16  2  0  0  0  0
 16 17  1  0  0  0  0
 17 18  1  0  0  0  0
 18 19  1  0  0  0  0
 18 20  1  0  0  0  0
 18 21  1  0  0  0  0
 16 22  1  0  0  0  0
 22 23  2  0  0  0  0
 11 24  2  0  0  0  0
 24 25  1  0  0  0  0
 25 26  2  0  0  0  0
  8 27  2  0  0  0  0
 27  4  1  0  0  0  0
 26  9  1  0  0  0  0
 23 13  1  0  0  0  0
  1 28  1  0  0  0  0
  1 29  1  0  0  0  0
  5 30  1  0  0  0  0
  6 31  1  0  0  0  0
  7 32  1  0  0  0  0
 10 33  1  0  0  0  0
 12 34  1  0  0  0  0
 14 35  1  0  0  0  0
 15 36  1  0  0  0  0
 22 37  1  0  0  0  0
 23 38  1  0  0  0  0
 25 39  1  0  0  0  0
 27 40  1  0  0  0  0
M  END
> <BIOSOLVEIT.HYDE_ESTIMATED_AFFINITY_LOWER_BOUNDARY [nM]>
15126473.196512

> <BIOSOLVEIT.HYDE_ESTIMATED_AFFINITY_UPPER_BOUNDARY [nM]>
1502904546.860985

> <BIOSOLVEIT.HYDE_LIGAND_EFFICIENCY range: ++, +, 0, -, -->
--

> <BIOSOLVEIT.HYDE_LIGAND_LIPOPHILIC_EFFICIENCY range: ++, +, 0, -, -->
--

> <BIOSOLVEIT.INTER_CLASH range: red, yellow, green>
green

> <BIOSOLVEIT.INTRA_CLASH range: red, yellow, green>
yellow

> <BIOSOLVEIT.LOGP>
3.8847

> <BIOSOLVEIT.MOLECULAR WEIGHT>
374.321

> <BIOSOLVEIT.MOLECULE_CHECKSUM>
LTQuNjkwMDc7MC4xNzM3MDY=

> <BIOSOLVEIT.TORSION_QUALITY range: red, yellow, green, not rotatable>
red

> <BIOSOLVEIT.TPSA>
90.13

$$$$
3K5V_STJ_2
foHydescor03192112293D 1   1.00000     0.00000     0
Hydescorer 1.1.0 fol007
 40 42  0  0  0  0            999 V2000
   27.3777   45.7634   51.6365 N   0  0  0  0  0  0  0  0  0  0  0  0
   26.3639   44.7921   51.9093 C   0  0  0  0  0  0  0  0  0  0  0  0
   25.8482   44.1643   50.9449 O   0  0  0  0  0  0  0  0  0  0  0  0
   25.9226   44.4997   53.2956 C   0  0  0  0  0  0  0  0  0  0  0  0
   26.8689   44.2871   54.2929 C   0  0  0  0  0  0  0  0  0  0  0  0
   26.4364   44.0144   55.5867 C   0  0  0  0  0  0  0  0  0  0  0  0
   25.0804   43.9525   55.8904 C   0  0  0  0  0  0  0  0  0  0  0  0
   24.1513   44.1689   54.8774 C   0  0  0  0  0  0  0  0  0  0  0  0
   22.7346   44.1072   55.1827 C   0  0  0  0  0  0  0  0  0  0  0  0
   21.8163   44.1084   54.1379 C   0  0  0  0  0  0  0  0  0  0  0  0
   20.4601   44.0491   54.4419 C   0  0  0  0  0  0  0  0  0  0  0  0
   19.5265   44.0505   53.3976 N   0  0  0  0  0  0  0  0  0  0  0  0
   18.9468   42.8611   52.8352 C   0  0  0  0  0  0  0  0  0  0  0  0
   17.5632   42.7507   52.7384 C   0  0  0  0  0  0  0  0  0  0  0  0
   16.9932   41.6033   52.1953 C   0  0  0  0  0  0  0  0  0  0  0  0
   17.8219   40.5767   51.7549 C   0  0  0  0  0  0  0  0  0  0  0  0
   17.2816   39.4586   51.2270 O   0  0  0  0  0  0  0  0  0  0  0  0
   17.2870   39.1150   49.8430 C   0  0  0  0  0  0  0  0  0  0  0  0
   18.5876   39.0110   49.3826 F   0  0  0  0  0  0  0  0  0  0  0  0
   16.6413   40.1079   49.1321 F   0  0  0  0  0  0  0  0  0  0  0  0
   16.6195   37.9194   49.6457 F   0  0  0  0  0  0  0  0  0  0  0  0
   19.2067   40.6782   51.8483 C   0  0  0  0  0  0  0  0  0  0  0  0
   19.7680   41.8288   52.3922 C   0  0  0  0  0  0  0  0  0  0  0  0
   20.0801   43.9924   55.7274 N   0  0  0  0  0  0  0  0  0  0  0  0
   20.9776   43.9919   56.7247 C   0  0  0  0  0  0  0  0  0  0  0  0
   22.2887   44.0490   56.4467 N   0  0  0  0  0  0  0  0  0  0  0  0
   24.5615   44.4431   53.5766 C   0  0  0  0  0  0  0  0  0  0  0  0
   27.7415   46.3282   52.3773 H   0  0  0  0  0  0  0  0  0  0  0  0
   27.7227   45.8780   50.7048 H   0  0  0  0  0  0  0  0  0  0  0  0
   27.8456   44.3297   54.0828 H   0  0  0  0  0  0  0  0  0  0  0  0
   27.1104   43.8606   56.3092 H   0  0  0  0  0  0  0  0  0  0  0  0
   24.7777   43.7554   56.8228 H   0  0  0  0  0  0  0  0  0  0  0  0
   22.1248   44.1509   53.1876 H   0  0  0  0  0  0  0  0  0  0  0  0
   19.2460   44.9329   53.0200 H   0  0  0  0  0  0  0  0  0  0  0  0
   16.9785   43.4958   53.0592 H   0  0  0  0  0  0  0  0  0  0  0  0
   15.9995   41.5179   52.1225 H   0  0  0  0  0  0  0  0  0  0  0  0
   19.7914   39.9327   51.5281 H   0  0  0  0  0  0  0  0  0  0  0  0
   20.7617   41.9142   52.4649 H   0  0  0  0  0  0  0  0  0  0  0  0
   20.6692   43.9490   57.6749 H   0  0  0  0  0  0  0  0  0  0  0  0
   23.8876   44.5972   52.8541 H   0  0  0  0  0  0  0  0  0  0  0  0
  1  2  1  0  0  0  0
  2  3  2  0  0  0  0
  2  4  1  0  0  0  0
  4  5  2  0  0  0  0
  5  6  1  0  0  0  0
  6  7  2  0  0  0  0
  7  8  1  0  0  0  0
  8  9  1  0  0  0  0
  9 10  2  0  0  0  0
 10 11  1  0  0  0  0
 11 12  1  0  0  0  0
 12 13  1  0  0  0  0
 13 14  2  0  0  0  0
 14 15  1  0  0  0  0
 15 16  2  0  0  0  0
 16 17  1  0  0  0  0
 17 18  1  0  0  0  0
 18 19  1  0  0  0  0
 18 20  1  0  0  0  0
 18 21  1  0  0  0  0
 16 22  1  0  0  0  0
 22 23  2  0  0  0  0
 11 24  2  0  0  0  0
 24 25  1  0  0  0  0
 25 26  2  0  0  0  0
  8 27  2  0  0  0  0
 27  4  1  0  0  0  0
 26  9  1  0  0  0  0
 23 13  1  0  0  0  0
  1 28  1  0  0  0  0
  1 29  1  0  0  0  0
  5 30  1  0  0  0  0
  6 31  1  0  0  0  0
  7 32  1  0  0  0  0
 10 33  1  0  0  0  0
 12 34  1  0  0  0  0
 14 35  1  0  0  0  0
 15 36  1  0  0  0  0
 22 37  1  0  0  0  0
 23 38  1  0  0  0  0
 25 39  1  0  0  0  0
 27 40  1  0  0  0  0
M  END
> <BIOSOLVEIT.HYDE_ESTIMATED_AFFINITY_LOWER_BOUNDARY [nM]>
26.015041

> <BIOSOLVEIT.HYDE_ESTIMATED_AFFINITY_UPPER_BOUNDARY [nM]>
2584.748118

> <BIOSOLVEIT.HYDE_LIGAND_EFFICIENCY range: ++, +, 0, -, -->
0

> <BIOSOLVEIT.HYDE_LIGAND_LIPOPHILIC_EFFICIENCY range: ++, +, 0, -, -->
-

> <BIOSOLVEIT.INTER_CLASH range: red, yellow, green>
green

> <BIOSOLVEIT.INTRA_CLASH range: red, yellow, green>
green

> <BIOSOLVEIT.LOGP>
3.8847

> <BIOSOLVEIT.MOLECULAR WEIGHT>
374.321

> <BIOSOLVEIT.MOLECULE_CHECKSUM>
LTM3LjU5NDsxLjM5MjM3

> <BIOSOLVEIT.TORSION_QUALITY range: red, yellow, green, not rotatable>
green

> <BIOSOLVEIT.TPSA>
90.13

$$$$
3K5V_STJ_3
foHydescor03192112293D 1   1.00000     0.00000     0
Hydescorer 1.1.0 fol007
 40 42  0  0  0  0            999 V2000
   20.7808   43.3784   64.1052 N   0  0  0  0  0  0  0  0  0  0  0  0
   21.2771   43.0128   62.8147 C   0  0  0  0  0  0  0  0  0  0  0  0
   22.4269   42.5024   62.7278 O   0  0  0  0  0  0  0  0  0  0  0  0
   20.4649   43.2059   61.5879 C   0  0  0  0  0  0  0  0  0  0  0  0
   19.0786   43.1100   61.6534 C   0  0  0  0  0  0  0  0  0  0  0  0
   18.3336   43.2942   60.4930 C   0  0  0  0  0  0  0  0  0  0  0  0
   18.9548   43.5703   59.2795 C   0  0  0  0  0  0  0  0  0  0  0  0
   20.3425   43.6621   59.2372 C   0  0  0  0  0  0  0  0  0  0  0  0
   21.0010   43.9500   57.9772 C   0  0  0  0  0  0  0  0  0  0  0  0
   20.2256   44.1929   56.8482 C   0  0  0  0  0  0  0  0  0  0  0  0
   20.8672   44.4678   55.6449 C   0  0  0  0  0  0  0  0  0  0  0  0
   20.0962   44.7134   54.5014 N   0  0  0  0  0  0  0  0  0  0  0  0
   19.6179   43.6852   53.6176 C   0  0  0  0  0  0  0  0  0  0  0  0
   18.2639   43.3653   53.6048 C   0  0  0  0  0  0  0  0  0  0  0  0
   17.7919   42.3717   52.7525 C   0  0  0  0  0  0  0  0  0  0  0  0
   18.6881   41.7084   51.9209 C   0  0  0  0  0  0  0  0  0  0  0  0
   18.2432   40.7424   51.0904 O   0  0  0  0  0  0  0  0  0  0  0  0
   17.4643   39.6138   51.4817 C   0  0  0  0  0  0  0  0  0  0  0  0
   16.2731   40.0302   52.0491 F   0  0  0  0  0  0  0  0  0  0  0  0
   18.1715   38.8836   52.4168 F   0  0  0  0  0  0  0  0  0  0  0  0
   17.2090   38.8078   50.3867 F   0  0  0  0  0  0  0  0  0  0  0  0
   20.0442   42.0213   51.9275 C   0  0  0  0  0  0  0  0  0  0  0  0
   20.5072   43.0161   52.7823 C   0  0  0  0  0  0  0  0  0  0  0  0
   22.2083   44.4909   55.6093 N   0  0  0  0  0  0  0  0  0  0  0  0
   22.9430   44.2547   56.7067 C   0  0  0  0  0  0  0  0  0  0  0  0
   22.3380   43.9879   57.8741 N   0  0  0  0  0  0  0  0  0  0  0  0
   21.1071   43.4815   60.3853 C   0  0  0  0  0  0  0  0  0  0  0  0
   19.8516   43.7355   64.2008 H   0  0  0  0  0  0  0  0  0  0  0  0
   21.3629   43.2770   64.9119 H   0  0  0  0  0  0  0  0  0  0  0  0
   18.6243   42.9116   62.5219 H   0  0  0  0  0  0  0  0  0  0  0  0
   17.3366   43.2272   60.5319 H   0  0  0  0  0  0  0  0  0  0  0  0
   18.4121   43.7008   58.4498 H   0  0  0  0  0  0  0  0  0  0  0  0
   19.2272   44.1704   56.9004 H   0  0  0  0  0  0  0  0  0  0  0  0
   19.8642   45.6621   54.2866 H   0  0  0  0  0  0  0  0  0  0  0  0
   17.6300   43.8493   54.2080 H   0  0  0  0  0  0  0  0  0  0  0  0
   16.8199   42.1373   52.7380 H   0  0  0  0  0  0  0  0  0  0  0  0
   20.6782   41.5367   51.3248 H   0  0  0  0  0  0  0  0  0  0  0  0
   21.4792   43.2505   52.7964 H   0  0  0  0  0  0  0  0  0  0  0  0
   23.9414   44.2774   56.6546 H   0  0  0  0  0  0  0  0  0  0  0  0
   22.1041   43.5488   60.3464 H   0  0  0  0  0  0  0  0  0  0  0  0
  1  2  1  0  0  0  0
  2  3  2  0  0  0  0
  2  4  1  0  0  0  0
  4  5  2  0  0  0  0
  5  6  1  0  0  0  0
  6  7  2  0  0  0  0
  7  8  1  0  0  0  0
  8  9  1  0  0  0  0
  9 10  2  0  0  0  0
 10 11  1  0  0  0  0
 11 12  1  0  0  0  0
 12 13  1  0  0  0  0
 13 14  2  0  0  0  0
 14 15  1  0  0  0  0
 15 16  2  0  0  0  0
 16 17  1  0  0  0  0
 17 18  1  0  0  0  0
 18 19  1  0  0  0  0
 18 20  1  0  0  0  0
 18 21  1  0  0  0  0
 16 22  1  0  0  0  0
 22 23  2  0  0  0  0
 11 24  2  0  0  0  0
 24 25  1  0  0  0  0
 25 26  2  0  0  0  0
  8 27  2  0  0  0  0
 27  4  1  0  0  0  0
 26  9  1  0  0  0  0
 23 13  1  0  0  0  0
  1 28  1  0  0  0  0
  1 29  1  0  0  0  0
  5 30  1  0  0  0  0
  6 31  1  0  0  0  0
  7 32  1  0  0  0  0
 10 33  1  0  0  0  0
 12 34  1  0  0  0  0
 14 35  1  0  0  0  0
 15 36  1  0  0  0  0
 22 37  1  0  0  0  0
 23 38  1  0  0  0  0
 25 39  1  0  0  0  0
 27 40  1  0  0  0  0
M  END
> <BIOSOLVEIT.HYDE_ESTIMATED_AFFINITY_LOWER_BOUNDARY [nM]>
53739284.296923

> <BIOSOLVEIT.HYDE_ESTIMATED_AFFINITY_UPPER_BOUNDARY [nM]>
5339315626.693685

> <BIOSOLVEIT.HYDE_LIGAND_EFFICIENCY range: ++, +, 0, -, -->
--

> <BIOSOLVEIT.HYDE_LIGAND_LIPOPHILIC_EFFICIENCY range: ++, +, 0, -, -->
--

> <BIOSOLVEIT.INTER_CLASH range: red, yellow, green>
green

> <BIOSOLVEIT.INTRA_CLASH range: red, yellow, green>
green

> <BIOSOLVEIT.LOGP>
3.8847

> <BIOSOLVEIT.MOLECULAR WEIGHT>
374.321

> <BIOSOLVEIT.MOLECULE_CHECKSUM>
LTEuNTQ3NTE7MC4wNTczMTU=

> <BIOSOLVEIT.TORSION_QUALITY range: red, yellow, green, not rotatable>
red

> <BIOSOLVEIT.TPSA>
90.13

$$$$
3K5V_STI_1
foHydescor03192112293D 1   1.00000     0.00000     0
Hydescorer 1.1.0 fol007
 70 74  0  0  0  0            999 V2000
   26.3925   43.3621   53.8920 C   0  0  0  0  0  0  0  0  0  0  0  0
   25.9648   44.4210   54.8953 C   0  0  0  0  0  0  0  0  0  0  0  0
   26.9077   45.3424   55.3383 C   0  0  0  0  0  0  0  0  0  0  0  0
   26.5445   46.3229   56.2560 C   0  0  0  0  0  0  0  0  0  0  0  0
   25.2344   46.3695   56.7215 C   0  0  0  0  0  0  0  0  0  0  0  0
   24.8586   47.3520   57.6453 N   0  0  0  0  0  0  0  0  0  0  0  0
   23.5399   47.4747   58.2011 C   0  0  0  0  0  0  0  0  0  0  0  0
   23.1243   48.6175   58.5329 O   0  0  0  0  0  0  0  0  0  0  0  0
   22.6768   46.2924   58.4330 C   0  0  0  0  0  0  0  0  0  0  0  0
   21.3409   46.3368   58.0469 C   0  0  0  0  0  0  0  0  0  0  0  0
   20.5188   45.2342   58.2570 C   0  0  0  0  0  0  0  0  0  0  0  0
   21.0517   44.0960   58.8547 C   0  0  0  0  0  0  0  0  0  0  0  0
   20.1649   42.8840   59.0913 C   0  0  0  0  0  0  0  0  0  0  0  0
   19.3532   43.0178   60.3290 N   0  3  0  0  0  0  0  0  0  0  0  0
   17.9971   43.4649   59.9793 C   0  0  0  0  0  0  0  0  0  0  0  0
   17.1901   43.7552   61.2368 C   0  0  0  0  0  0  0  0  0  0  0  0
   17.8855   44.6989   62.1287 N   0  3  0  0  0  0  0  0  0  0  0  0
   17.0550   45.8839   62.3905 C   0  0  0  0  0  0  0  0  0  0  0  0
   19.2074   45.1231   61.6401 C   0  0  0  0  0  0  0  0  0  0  0  0
   20.0560   43.9223   61.2578 C   0  0  0  0  0  0  0  0  0  0  0  0
   22.3867   44.0472   59.2425 C   0  0  0  0  0  0  0  0  0  0  0  0
   23.2047   45.1526   59.0301 C   0  0  0  0  0  0  0  0  0  0  0  0
   24.2856   45.4515   56.2831 C   0  0  0  0  0  0  0  0  0  0  0  0
   24.6562   44.4737   55.3655 C   0  0  0  0  0  0  0  0  0  0  0  0
   23.6863   43.5171   54.9023 N   0  0  0  0  0  0  0  0  0  0  0  0
   22.3442   43.8341   54.6564 C   0  0  0  0  0  0  0  0  0  0  0  0
   21.8208   44.9267   55.2318 N   0  0  0  0  0  0  0  0  0  0  0  0
   20.5421   45.2786   55.0323 C   0  0  0  0  0  0  0  0  0  0  0  0
   19.7360   44.4970   54.2113 C   0  0  0  0  0  0  0  0  0  0  0  0
   20.2875   43.3659   53.6193 C   0  0  0  0  0  0  0  0  0  0  0  0
   19.4528   42.5443   52.7609 C   0  0  0  0  0  0  0  0  0  0  0  0
   20.0190   41.9115   51.6594 C   0  0  0  0  0  0  0  0  0  0  0  0
   19.2165   41.1249   50.8405 C   0  0  0  0  0  0  0  0  0  0  0  0
   17.8671   40.9961   51.1517 C   0  0  0  0  0  0  0  0  0  0  0  0
   17.3441   41.6166   52.2198 N   0  0  0  0  0  0  0  0  0  0  0  0
   18.0970   42.3806   53.0254 C   0  0  0  0  0  0  0  0  0  0  0  0
   21.5753   43.0720   53.8620 N   0  0  0  0  0  0  0  0  0  0  0  0
   25.6117   42.7778   53.6709 H   0  0  0  0  0  0  0  0  0  0  0  0
   26.7230   43.8062   53.0592 H   0  0  0  0  0  0  0  0  0  0  0  0
   27.1241   42.8058   54.2860 H   0  0  0  0  0  0  0  0  0  0  0  0
   27.8468   45.3001   54.9972 H   0  0  0  0  0  0  0  0  0  0  0  0
   27.2186   46.9878   56.5778 H   0  0  0  0  0  0  0  0  0  0  0  0
   25.5526   48.0105   57.9367 H   0  0  0  0  0  0  0  0  0  0  0  0
   20.9715   47.1613   57.6184 H   0  0  0  0  0  0  0  0  0  0  0  0
   19.5577   45.2593   57.9821 H   0  0  0  0  0  0  0  0  0  0  0  0
   20.7432   42.0721   59.1712 H   0  0  0  0  0  0  0  0  0  0  0  0
   19.5483   42.7786   58.3112 H   0  0  0  0  0  0  0  0  0  0  0  0
   19.2857   42.1174   60.7588 H   0  0  0  0  0  0  0  0  0  0  0  0
   17.5398   42.7480   59.4531 H   0  0  0  0  0  0  0  0  0  0  0  0
   18.0571   44.2967   59.4275 H   0  0  0  0  0  0  0  0  0  0  0  0
   17.0377   42.8978   61.7285 H   0  0  0  0  0  0  0  0  0  0  0  0
   16.3096   44.1488   60.9725 H   0  0  0  0  0  0  0  0  0  0  0  0
   18.0259   44.2343   63.0030 H   0  0  0  0  0  0  0  0  0  0  0  0
   17.5472   46.5085   62.9968 H   0  0  0  0  0  0  0  0  0  0  0  0
   16.8535   46.3469   61.5274 H   0  0  0  0  0  0  0  0  0  0  0  0
   16.1997   45.6021   62.8252 H   0  0  0  0  0  0  0  0  0  0  0  0
   19.6732   45.6369   62.3606 H   0  0  0  0  0  0  0  0  0  0  0  0
   19.0876   45.7079   60.8378 H   0  0  0  0  0  0  0  0  0  0  0  0
   20.2886   43.4149   62.0875 H   0  0  0  0  0  0  0  0  0  0  0  0
   20.8941   44.2466   60.8194 H   0  0  0  0  0  0  0  0  0  0  0  0
   22.7563   43.2229   59.6713 H   0  0  0  0  0  0  0  0  0  0  0  0
   24.1658   45.1276   59.3050 H   0  0  0  0  0  0  0  0  0  0  0  0
   23.3465   45.4940   56.6242 H   0  0  0  0  0  0  0  0  0  0  0  0
   23.9862   42.5758   54.7477 H   0  0  0  0  0  0  0  0  0  0  0  0
   20.1709   46.0971   55.4708 H   0  0  0  0  0  0  0  0  0  0  0  0
   18.7803   44.7432   54.0502 H   0  0  0  0  0  0  0  0  0  0  0  0
   20.9924   42.0210   51.4585 H   0  0  0  0  0  0  0  0  0  0  0  0
   19.6021   40.6606   50.0431 H   0  0  0  0  0  0  0  0  0  0  0  0
   17.2787   40.4333   50.5713 H   0  0  0  0  0  0  0  0  0  0  0  0
   17.6836   42.8324   53.8160 H   0  0  0  0  0  0  0  0  0  0  0  0
  1  2  1  0  0  0  0
  2  3  2  0  0  0  0
  3  4  1  0  0  0  0
  4  5  2  0  0  0  0
  5  6  1  0  0  0  0
  6  7  1  0  0  0  0
  7  8  2  0  0  0  0
  7  9  1  0  0  0  0
  9 10  2  0  0  0  0
 10 11  1  0  0  0  0
 11 12  2  0  0  0  0
 12 13  1  0  0  0  0
 13 14  1  0  0  0  0
 14 15  1  0  0  0  0
 15 16  1  0  0  0  0
 16 17  1  0  0  0  0
 17 18  1  0  0  0  0
 17 19  1  0  0  0  0
 19 20  1  0  0  0  0
 12 21  1  0  0  0  0
 21 22  2  0  0  0  0
  5 23  1  0  0  0  0
 23 24  2  0  0  0  0
 24 25  1  0  0  0  0
 25 26  1  0  0  0  0
 26 27  2  0  0  0  0
 27 28  1  0  0  0  0
 28 29  2  0  0  0  0
 29 30  1  0  0  0  0
 30 31  1  0  0  0  0
 31 32  2  0  0  0  0
 32 33  1  0  0  0  0
 33 34  2  0  0  0  0
 34 35  1  0  0  0  0
 35 36  2  0  0  0  0
 30 37  2  0  0  0  0
 24  2  1  0  0  0  0
 37 26  1  0  0  0  0
 22  9  1  0  0  0  0
 36 31  1  0  0  0  0
 20 14  1  0  0  0  0
  1 38  1  0  0  0  0
  1 39  1  0  0  0  0
  1 40  1  0  0  0  0
  3 41  1  0  0  0  0
  4 42  1  0  0  0  0
  6 43  1  0  0  0  0
 10 44  1  0  0  0  0
 11 45  1  0  0  0  0
 13 46  1  0  0  0  0
 13 47  1  0  0  0  0
 14 48  1  0  0  0  0
 15 49  1  0  0  0  0
 15 50  1  0  0  0  0
 16 51  1  0  0  0  0
 16 52  1  0  0  0  0
 17 53  1  0  0  0  0
 18 54  1  0  0  0  0
 18 55  1  0  0  0  0
 18 56  1  0  0  0  0
 19 57  1  0  0  0  0
 19 58  1  0  0  0  0
 20 59  1  0  0  0  0
 20 60  1  0  0  0  0
 21 61  1  0  0  0  0
 22 62  1  0  0  0  0
 23 63  1  0  0  0  0
 25 64  1  0  0  0  0
 28 65  1  0  0  0  0
 29 66  1  0  0  0  0
 32 67  1  0  0  0  0
 33 68  1  0  0  0  0
 34 69  1  0  0  0  0
 36 70  1  0  0  0  0
M  CHG  2  14   1  17   1
M  END
> <BIOSOLVEIT.HYDE_ESTIMATED_AFFINITY_LOWER_BOUNDARY [nM]>
150123286.746444

> <BIOSOLVEIT.HYDE_ESTIMATED_AFFINITY_UPPER_BOUNDARY [nM]>
14915636137.376076

> <BIOSOLVEIT.HYDE_LIGAND_EFFICIENCY range: ++, +, 0, -, -->
--

> <BIOSOLVEIT.HYDE_LIGAND_LIPOPHILIC_EFFICIENCY range: ++, +, 0, -, -->
--

> <BIOSOLVEIT.INTER_CLASH range: red, yellow, green>
green

> <BIOSOLVEIT.INTRA_CLASH range: red, yellow, green>
red

> <BIOSOLVEIT.LOGP>
1.75612

> <BIOSOLVEIT.MOLECULAR WEIGHT>
495.628

> <BIOSOLVEIT.MOLECULE_CHECKSUM>
MC45OTkxNTg7MA==

> <BIOSOLVEIT.TORSION_QUALITY range: red, yellow, green, not rotatable>
red

> <BIOSOLVEIT.TPSA>
88.68

$$$$
3K5V_STI_2
foHydescor03192112293D 1   1.00000     0.00000     0
Hydescorer 1.1.0 fol007
 70 74  0  0  0  0            999 V2000
   26.3908   43.3611   53.8840 C   0  0  0  0  0  0  0  0  0  0  0  0
   25.9662   44.4222   54.8863 C   0  0  0  0  0  0  0  0  0  0  0  0
   26.9106   45.3448   55.3241 C   0  0  0  0  0  0  0  0  0  0  0  0
   26.5501   46.3274   56.2407 C   0  0  0  0  0  0  0  0  0  0  0  0
   25.2416   46.3749   56.7104 C   0  0  0  0  0  0  0  0  0  0  0  0
   24.8686   47.3596   57.6330 N   0  0  0  0  0  0  0  0  0  0  0  0
   23.5511   47.4847   58.1911 C   0  0  0  0  0  0  0  0  0  0  0  0
   23.1374   48.6285   58.5217 O   0  0  0  0  0  0  0  0  0  0  0  0
   22.6871   46.3037   58.4267 C   0  0  0  0  0  0  0  0  0  0  0  0
   21.3538   46.3444   58.0315 C   0  0  0  0  0  0  0  0  0  0  0  0
   20.5309   45.2430   58.2450 C   0  0  0  0  0  0  0  0  0  0  0  0
   21.0605   44.1099   58.8554 C   0  0  0  0  0  0  0  0  0  0  0  0
   20.1727   42.8993   59.0957 C   0  0  0  0  0  0  0  0  0  0  0  0
   19.3522   43.0428   60.3265 N   0  3  0  0  0  0  0  0  0  0  0  0
   20.0311   43.9155   61.3047 C   0  0  0  0  0  0  0  0  0  0  0  0
   19.1883   45.1257   61.6723 C   0  0  0  0  0  0  0  0  0  0  0  0
   17.8652   44.6940   62.1501 N   0  3  0  0  0  0  0  0  0  0  0  0
   17.0192   45.8710   62.3853 C   0  0  0  0  0  0  0  0  0  0  0  0
   17.1959   43.7444   61.2439 C   0  0  0  0  0  0  0  0  0  0  0  0
   17.9979   43.4926   59.9765 C   0  0  0  0  0  0  0  0  0  0  0  0
   22.3928   44.0650   59.2522 C   0  0  0  0  0  0  0  0  0  0  0  0
   23.2117   45.1690   59.0365 C   0  0  0  0  0  0  0  0  0  0  0  0
   24.2915   45.4558   56.2771 C   0  0  0  0  0  0  0  0  0  0  0  0
   24.6592   44.4758   55.3605 C   0  0  0  0  0  0  0  0  0  0  0  0
   23.6880   43.5181   54.9027 N   0  0  0  0  0  0  0  0  0  0  0  0
   22.3463   43.8356   54.6554 C   0  0  0  0  0  0  0  0  0  0  0  0
   21.8233   44.9297   55.2282 N   0  0  0  0  0  0  0  0  0  0  0  0
   20.5450   45.2821   55.0273 C   0  0  0  0  0  0  0  0  0  0  0  0
   19.7389   44.4995   54.2073 C   0  0  0  0  0  0  0  0  0  0  0  0
   20.2898   43.3668   53.6178 C   0  0  0  0  0  0  0  0  0  0  0  0
   19.4551   42.5441   52.7607 C   0  0  0  0  0  0  0  0  0  0  0  0
   20.0210   41.9105   51.6594 C   0  0  0  0  0  0  0  0  0  0  0  0
   19.2186   41.1228   50.8416 C   0  0  0  0  0  0  0  0  0  0  0  0
   17.8694   40.9938   51.1535 C   0  0  0  0  0  0  0  0  0  0  0  0
   17.3466   41.6150   52.2212 N   0  0  0  0  0  0  0  0  0  0  0  0
   18.0995   42.3802   53.0259 C   0  0  0  0  0  0  0  0  0  0  0  0
   21.5773   43.0724   53.8621 N   0  0  0  0  0  0  0  0  0  0  0  0
   25.6094   42.7761   53.6668 H   0  0  0  0  0  0  0  0  0  0  0  0
   26.7184   43.8032   53.0491 H   0  0  0  0  0  0  0  0  0  0  0  0
   27.1237   42.8058   54.2769 H   0  0  0  0  0  0  0  0  0  0  0  0
   27.8485   45.3019   54.9800 H   0  0  0  0  0  0  0  0  0  0  0  0
   27.2252   46.9931   56.5588 H   0  0  0  0  0  0  0  0  0  0  0  0
   25.5638   48.0178   57.9219 H   0  0  0  0  0  0  0  0  0  0  0  0
   20.9868   47.1653   57.5940 H   0  0  0  0  0  0  0  0  0  0  0  0
   19.5716   45.2653   57.9636 H   0  0  0  0  0  0  0  0  0  0  0  0
   20.7509   42.0884   59.1864 H   0  0  0  0  0  0  0  0  0  0  0  0
   19.5616   42.7870   58.3122 H   0  0  0  0  0  0  0  0  0  0  0  0
   19.2699   42.1360   60.7398 H   0  0  0  0  0  0  0  0  0  0  0  0
   20.8943   44.2313   60.9106 H   0  0  0  0  0  0  0  0  0  0  0  0
   20.2163   43.3878   62.1336 H   0  0  0  0  0  0  0  0  0  0  0  0
   19.0754   45.7073   60.8666 H   0  0  0  0  0  0  0  0  0  0  0  0
   19.6485   45.6423   62.3944 H   0  0  0  0  0  0  0  0  0  0  0  0
   17.9955   44.2342   63.0285 H   0  0  0  0  0  0  0  0  0  0  0  0
   16.1205   45.5761   62.7099 H   0  0  0  0  0  0  0  0  0  0  0  0
   17.4467   46.4566   63.0740 H   0  0  0  0  0  0  0  0  0  0  0  0
   16.9142   46.3819   61.5320 H   0  0  0  0  0  0  0  0  0  0  0  0
   16.3028   44.1164   60.9908 H   0  0  0  0  0  0  0  0  0  0  0  0
   17.0713   42.8757   61.7234 H   0  0  0  0  0  0  0  0  0  0  0  0
   18.0555   44.3387   59.4465 H   0  0  0  0  0  0  0  0  0  0  0  0
   17.5445   42.7877   59.4311 H   0  0  0  0  0  0  0  0  0  0  0  0
   22.7599   43.2442   59.6900 H   0  0  0  0  0  0  0  0  0  0  0  0
   24.1709   45.1468   59.3179 H   0  0  0  0  0  0  0  0  0  0  0  0
   23.3536   45.4990   56.6211 H   0  0  0  0  0  0  0  0  0  0  0  0
   23.9867   42.5756   54.7531 H   0  0  0  0  0  0  0  0  0  0  0  0
   20.1740   46.1017   55.4640 H   0  0  0  0  0  0  0  0  0  0  0  0
   18.7834   44.7462   54.0451 H   0  0  0  0  0  0  0  0  0  0  0  0
   20.9943   42.0204   51.4580 H   0  0  0  0  0  0  0  0  0  0  0  0
   19.6041   40.6579   50.0445 H   0  0  0  0  0  0  0  0  0  0  0  0
   17.2809   40.4302   50.5739 H   0  0  0  0  0  0  0  0  0  0  0  0
   17.6862   42.8327   53.8161 H   0  0  0  0  0  0  0  0  0  0  0  0
  1  2  1  0  0  0  0
  2  3  2  0  0  0  0
  3  4  1  0  0  0  0
  4  5  2  0  0  0  0
  5  6  1  0  0  0  0
  6  7  1  0  0  0  0
  7  8  2  0  0  0  0
  7  9  1  0  0  0  0
  9 10  2  0  0  0  0
 10 11  1  0  0  0  0
 11 12  2  0  0  0  0
 12 13  1  0  0  0  0
 13 14  1  0  0  0  0
 14 15  1  0  0  0  0
 15 16  1  0  0  0  0
 16 17  1  0  0  0  0
 17 18  1  0  0  0  0
 17 19  1  0  0  0  0
 19 20  1  0  0  0  0
 12 21  1  0  0  0  0
 21 22  2  0  0  0  0
  5 23  1  0  0  0  0
 23 24  2  0  0  0  0
 24 25  1  0  0  0  0
 25 26  1  0  0  0  0
 26 27  2  0  0  0  0
 27 28  1  0  0  0  0
 28 29  2  0  0  0  0
 29 30  1  0  0  0  0
 30 31  1  0  0  0  0
 31 32  2  0  0  0  0
 32 33  1  0  0  0  0
 33 34  2  0  0  0  0
 34 35  1  0  0  0  0
 35 36  2  0  0  0  0
 30 37  2  0  0  0  0
 24  2  1  0  0  0  0
 37 26  1  0  0  0  0
 22  9  1  0  0  0  0
 36 31  1  0  0  0  0
 20 14  1  0  0  0  0
  1 38  1  0  0  0  0
  1 39  1  0  0  0  0
  1 40  1  0  0  0  0
  3 41  1  0  0  0  0
  4 42  1  0  0  0  0
  6 43  1  0  0  0  0
 10 44  1  0  0  0  0
 11 45  1  0  0  0  0
 13 46  1  0  0  0  0
 13 47  1  0  0  0  0
 14 48  1  0  0  0  0
 15 49  1  0  0  0  0
 15 50  1  0  0  0  0
 16 51  1  0  0  0  0
 16 52  1  0  0  0  0
 17 53  1  0  0  0  0
 18 54  1  0  0  0  0
 18 55  1  0  0  0  0
 18 56  1  0  0  0  0
 19 57  1  0  0  0  0
 19 58  1  0  0  0  0
 20 59  1  0  0  0  0
 20 60  1  0  0  0  0
 21 61  1  0  0  0  0
 22 62  1  0  0  0  0
 23 63  1  0  0  0  0
 25 64  1  0  0  0  0
 28 65  1  0  0  0  0
 29 66  1  0  0  0  0
 32 67  1  0  0  0  0
 33 68  1  0  0  0  0
 34 69  1  0  0  0  0
 36 70  1  0  0  0  0
M  CHG  2  14   1  17   1
M  END
> <BIOSOLVEIT.HYDE_ESTIMATED_AFFINITY_LOWER_BOUNDARY [nM]>
161383698.263861

> <BIOSOLVEIT.HYDE_ESTIMATED_AFFINITY_UPPER_BOUNDARY [nM]>
16034424598.453342

> <BIOSOLVEIT.HYDE_LIGAND_EFFICIENCY range: ++, +, 0, -, -->
--

> <BIOSOLVEIT.HYDE_LIGAND_LIPOPHILIC_EFFICIENCY range: ++, +, 0, -, -->
--

> <BIOSOLVEIT.INTER_CLASH range: red, yellow, green>
green

> <BIOSOLVEIT.INTRA_CLASH range: red, yellow, green>
red

> <BIOSOLVEIT.LOGP>
1.75612

> <BIOSOLVEIT.MOLECULAR WEIGHT>
495.628

> <BIOSOLVEIT.MOLECULE_CHECKSUM>
MS4xNzg0Njsw

> <BIOSOLVEIT.TORSION_QUALITY range: red, yellow, green, not rotatable>
red

> <BIOSOLVEIT.TPSA>
88.68

$$$$
3K5V_STI_3
foHydescor03192112293D 1   1.00000     0.00000     0
Hydescorer 1.1.0 fol007
 70 74  0  0  0  0            999 V2000
   26.3694   43.3540   53.8045 C   0  0  0  0  0  0  0  0  0  0  0  0
   25.9582   44.4264   54.8001 C   0  0  0  0  0  0  0  0  0  0  0  0
   26.9055   45.3599   55.2074 C   0  0  0  0  0  0  0  0  0  0  0  0
   26.5572   46.3529   56.1173 C   0  0  0  0  0  0  0  0  0  0  0  0
   25.2577   46.3999   56.6111 C   0  0  0  0  0  0  0  0  0  0  0  0
   24.8970   47.3952   57.5274 N   0  0  0  0  0  0  0  0  0  0  0  0
   23.5897   47.5211   58.1088 C   0  0  0  0  0  0  0  0  0  0  0  0
   23.1761   48.6671   58.4317 O   0  0  0  0  0  0  0  0  0  0  0  0
   22.7367   46.3390   58.3768 C   0  0  0  0  0  0  0  0  0  0  0  0
   21.4136   46.3409   57.9468 C   0  0  0  0  0  0  0  0  0  0  0  0
   20.6012   45.2379   58.1900 C   0  0  0  0  0  0  0  0  0  0  0  0
   21.1309   44.1423   58.8651 C   0  0  0  0  0  0  0  0  0  0  0  0
   20.2546   42.9305   59.1387 C   0  0  0  0  0  0  0  0  0  0  0  0
   19.6140   42.9943   60.4782 N   0  3  0  0  0  0  0  0  0  0  0  0
   20.6568   43.2386   61.4870 C   0  0  0  0  0  0  0  0  0  0  0  0
   20.0891   43.9952   62.6791 C   0  0  0  0  0  0  0  0  0  0  0  0
   19.6847   45.3545   62.2907 N   0  3  0  0  0  0  0  0  0  0  0  0
   20.8016   46.3060   62.3945 C   0  0  0  0  0  0  0  0  0  0  0  0
   19.1775   45.3896   60.9108 C   0  0  0  0  0  0  0  0  0  0  0  0
   18.5801   44.0407   60.5385 C   0  0  0  0  0  0  0  0  0  0  0  0
   22.4531   44.1360   59.2972 C   0  0  0  0  0  0  0  0  0  0  0  0
   23.2614   45.2416   59.0514 C   0  0  0  0  0  0  0  0  0  0  0  0
   24.3046   45.4700   56.2087 C   0  0  0  0  0  0  0  0  0  0  0  0
   24.6601   44.4796   55.2986 C   0  0  0  0  0  0  0  0  0  0  0  0
   23.6857   43.5106   54.8725 N   0  0  0  0  0  0  0  0  0  0  0  0
   22.3430   43.8227   54.6232 C   0  0  0  0  0  0  0  0  0  0  0  0
   21.8162   44.9175   55.1912 N   0  0  0  0  0  0  0  0  0  0  0  0
   20.5368   45.2648   54.9882 C   0  0  0  0  0  0  0  0  0  0  0  0
   19.7336   44.4761   54.1712 C   0  0  0  0  0  0  0  0  0  0  0  0
   20.2886   43.3427   53.5869 C   0  0  0  0  0  0  0  0  0  0  0  0
   19.4569   42.5136   52.7329 C   0  0  0  0  0  0  0  0  0  0  0  0
   20.0254   41.8773   51.6345 C   0  0  0  0  0  0  0  0  0  0  0  0
   19.2258   41.0835   50.8197 C   0  0  0  0  0  0  0  0  0  0  0  0
   17.8769   40.9513   51.1317 C   0  0  0  0  0  0  0  0  0  0  0  0
   17.3517   41.5752   52.1966 N   0  0  0  0  0  0  0  0  0  0  0  0
   18.1018   42.3462   52.9982 C   0  0  0  0  0  0  0  0  0  0  0  0
   21.5769   43.0536   53.8329 N   0  0  0  0  0  0  0  0  0  0  0  0
   25.5871   42.7620   53.6101 H   0  0  0  0  0  0  0  0  0  0  0  0
   26.6787   43.7864   52.9576 H   0  0  0  0  0  0  0  0  0  0  0  0
   27.1128   42.8079   54.1908 H   0  0  0  0  0  0  0  0  0  0  0  0
   27.8371   45.3172   54.8461 H   0  0  0  0  0  0  0  0  0  0  0  0
   27.2345   47.0264   56.4135 H   0  0  0  0  0  0  0  0  0  0  0  0
   25.5940   48.0609   57.7940 H   0  0  0  0  0  0  0  0  0  0  0  0
   21.0465   47.1351   57.4628 H   0  0  0  0  0  0  0  0  0  0  0  0
   19.6493   45.2325   57.8838 H   0  0  0  0  0  0  0  0  0  0  0  0
   20.8195   42.1066   59.0904 H   0  0  0  0  0  0  0  0  0  0  0  0
   19.5395   42.8857   58.4411 H   0  0  0  0  0  0  0  0  0  0  0  0
   19.1857   42.1111   60.6696 H   0  0  0  0  0  0  0  0  0  0  0  0
   21.3909   43.7787   61.0754 H   0  0  0  0  0  0  0  0  0  0  0  0
   21.0227   42.3620   61.7992 H   0  0  0  0  0  0  0  0  0  0  0  0
   20.7865   44.0521   63.3935 H   0  0  0  0  0  0  0  0  0  0  0  0
   19.2920   43.5037   63.0299 H   0  0  0  0  0  0  0  0  0  0  0  0
   18.9545   45.6551   62.9043 H   0  0  0  0  0  0  0  0  0  0  0  0
   20.4899   47.2166   62.1234 H   0  0  0  0  0  0  0  0  0  0  0  0
   21.1294   46.3333   63.3388 H   0  0  0  0  0  0  0  0  0  0  0  0
   21.5447   46.0148   61.7920 H   0  0  0  0  0  0  0  0  0  0  0  0
   19.9300   45.6015   60.2872 H   0  0  0  0  0  0  0  0  0  0  0  0
   18.4731   46.0955   60.8353 H   0  0  0  0  0  0  0  0  0  0  0  0
   18.1401   44.1154   59.6437 H   0  0  0  0  0  0  0  0  0  0  0  0
   17.8988   43.7859   61.2248 H   0  0  0  0  0  0  0  0  0  0  0  0
   22.8203   43.3420   59.7815 H   0  0  0  0  0  0  0  0  0  0  0  0
   24.2133   45.2471   59.3576 H   0  0  0  0  0  0  0  0  0  0  0  0
   23.3731   45.5129   56.5700 H   0  0  0  0  0  0  0  0  0  0  0  0
   23.9827   42.5640   54.7477 H   0  0  0  0  0  0  0  0  0  0  0  0
   20.1629   46.0851   55.4212 H   0  0  0  0  0  0  0  0  0  0  0  0
   18.7775   44.7188   54.0075 H   0  0  0  0  0  0  0  0  0  0  0  0
   20.9984   41.9895   51.4330 H   0  0  0  0  0  0  0  0  0  0  0  0
   19.6131   40.6166   50.0247 H   0  0  0  0  0  0  0  0  0  0  0  0
   17.2906   40.3831   50.5543 H   0  0  0  0  0  0  0  0  0  0  0  0
   17.6868   42.8005   53.7865 H   0  0  0  0  0  0  0  0  0  0  0  0
  1  2  1  0  0  0  0
  2  3  2  0  0  0  0
  3  4  1  0  0  0  0
  4  5  2  0  0  0  0
  5  6  1  0  0  0  0
  6  7  1  0  0  0  0
  7  8  2  0  0  0  0
  7  9  1  0  0  0  0
  9 10  2  0  0  0  0
 10 11  1  0  0  0  0
 11 12  2  0  0  0  0
 12 13  1  0  0  0  0
 13 14  1  0  0  0  0
 14 15  1  0  0  0  0
 15 16  1  0  0  0  0
 16 17  1  0  0  0  0
 17 18  1  0  0  0  0
 17 19  1  0  0  0  0
 19 20  1  0  0  0  0
 12 21  1  0  0  0  0
 21 22  2  0  0  0  0
  5 23  1  0  0  0  0
 23 24  2  0  0  0  0
 24 25  1  0  0  0  0
 25 26  1  0  0  0  0
 26 27  2  0  0  0  0
 27 28  1  0  0  0  0
 28 29  2  0  0  0  0
 29 30  1  0  0  0  0
 30 31  1  0  0  0  0
 31 32  2  0  0  0  0
 32 33  1  0  0  0  0
 33 34  2  0  0  0  0
 34 35  1  0  0  0  0
 35 36  2  0  0  0  0
 30 37  2  0  0  0  0
 24  2  1  0  0  0  0
 37 26  1  0  0  0  0
 22  9  1  0  0  0  0
 36 31  1  0  0  0  0
 20 14  1  0  0  0  0
  1 38  1  0  0  0  0
  1 39  1  0  0  0  0
  1 40  1  0  0  0  0
  3 41  1  0  0  0  0
  4 42  1  0  0  0  0
  6 43  1  0  0  0  0
 10 44  1  0  0  0  0
 11 45  1  0  0  0  0
 13 46  1  0  0  0  0
 13 47  1  0  0  0  0
 14 48  1  0  0  0  0
 15 49  1  0  0  0  0
 15 50  1  0  0  0  0
 16 51  1  0  0  0  0
 16 52  1  0  0  0  0
 17 53  1  0  0  0  0
 18 54  1  0  0  0  0
 18 55  1  0  0  0  0
 18 56  1  0  0  0  0
 19 57  1  0  0  0  0
 19 58  1  0  0  0  0
 20 59  1  0  0  0  0
 20 60  1  0  0  0  0
 21 61  1  0  0  0  0
 22 62  1  0  0  0  0
 23 63  1  0  0  0  0
 25 64  1  0  0  0  0
 28 65  1  0  0  0  0
 29 66  1  0  0  0  0
 32 67  1  0  0  0  0
 33 68  1  0  0  0  0
 34 69  1  0  0  0  0
 36 70  1  0  0  0  0
M  CHG  2  14   1  17   1
M  END
> <BIOSOLVEIT.HYDE_ESTIMATED_AFFINITY_LOWER_BOUNDARY [nM]>
64416784.434859

> <BIOSOLVEIT.HYDE_ESTIMATED_AFFINITY_UPPER_BOUNDARY [nM]>
6400188395.774656

> <BIOSOLVEIT.HYDE_LIGAND_EFFICIENCY range: ++, +, 0, -, -->
--

> <BIOSOLVEIT.HYDE_LIGAND_LIPOPHILIC_EFFICIENCY range: ++, +, 0, -, -->
--

> <BIOSOLVEIT.INTER_CLASH range: red, yellow, green>
green

> <BIOSOLVEIT.INTRA_CLASH range: red, yellow, green>
red

> <BIOSOLVEIT.LOGP>
1.75612

> <BIOSOLVEIT.MOLECULAR WEIGHT>
495.628

> <BIOSOLVEIT.MOLECULE_CHECKSUM>
LTEuMDk4MjQ7MC4wMjk2ODIz

> <BIOSOLVEIT.TORSION_QUALITY range: red, yellow, green, not rotatable>
red

> <BIOSOLVEIT.TPSA>
88.68

$$$$
