1FPU_PRC_1
foHydescor03222115303D 1   1.00000     0.00000     0
Hydescorer 1.1.0 fol007
 47 50  0  0  0  0            999 V2000
   17.7227  -10.7524    7.6054 C   0  0  0  0  0  0  0  0  0  0  0  0
   18.7024   -9.6979    8.0937 C   0  0  0  0  0  0  0  0  0  0  0  0
   19.1345   -9.7468    9.4149 C   0  0  0  0  0  0  0  0  0  0  0  0
   20.0314   -8.7950    9.8892 C   0  0  0  0  0  0  0  0  0  0  0  0
   20.4876   -7.8002    9.0306 C   0  0  0  0  0  0  0  0  0  0  0  0
   21.3902   -6.8374    9.4979 N   0  0  0  0  0  0  0  0  0  0  0  0
   22.2590   -6.0738    8.6474 C   0  0  0  0  0  0  0  0  0  0  0  0
   23.3695   -5.6890    9.1025 O   0  0  0  0  0  0  0  0  0  0  0  0
   21.8633   -5.6877    7.2718 C   0  0  0  0  0  0  0  0  0  0  0  0
   22.6381   -6.1051    6.1948 C   0  0  0  0  0  0  0  0  0  0  0  0
   22.2631   -5.7418    4.9061 C   0  0  0  0  0  0  0  0  0  0  0  0
   21.1195   -4.9688    4.7359 C   0  0  0  0  0  0  0  0  0  0  0  0
   20.3884   -4.5783    5.7905 N   0  0  0  0  0  0  0  0  0  0  0  0
   20.7288   -4.9159    7.0435 C   0  0  0  0  0  0  0  0  0  0  0  0
   20.0602   -7.7446    7.7080 C   0  0  0  0  0  0  0  0  0  0  0  0
   19.1630   -8.6998    7.2406 C   0  0  0  0  0  0  0  0  0  0  0  0
   18.7238   -8.6570    5.9118 N   0  0  0  0  0  0  0  0  0  0  0  0
   19.6216   -8.7133    4.7946 C   0  0  0  0  0  0  0  0  0  0  0  0
   20.9401   -8.6099    5.0173 N   0  0  0  0  0  0  0  0  0  0  0  0
   21.8257   -8.6556    4.0113 C   0  0  0  0  0  0  0  0  0  0  0  0
   21.3727   -8.8138    2.7057 C   0  0  0  0  0  0  0  0  0  0  0  0
   20.0038   -8.9199    2.4846 C   0  0  0  0  0  0  0  0  0  0  0  0
   19.5225   -9.0849    1.1247 C   0  0  0  0  0  0  0  0  0  0  0  0
   19.6777   -8.0456    0.2135 C   0  0  0  0  0  0  0  0  0  0  0  0
   19.2163   -8.2079   -1.0881 C   0  0  0  0  0  0  0  0  0  0  0  0
   18.6116   -9.4106   -1.4376 C   0  0  0  0  0  0  0  0  0  0  0  0
   18.4732  -10.3985   -0.5408 N   0  0  0  0  0  0  0  0  0  0  0  0
   18.9102  -10.2668    0.7207 C   0  0  0  0  0  0  0  0  0  0  0  0
   19.1728   -8.8660    3.5383 N   0  0  0  0  0  0  0  0  0  0  0  0
   17.5071  -10.5870    6.6430 H   0  0  0  0  0  0  0  0  0  0  0  0
   18.1324  -11.6593    7.7041 H   0  0  0  0  0  0  0  0  0  0  0  0
   16.8839  -10.7047    8.1478 H   0  0  0  0  0  0  0  0  0  0  0  0
   18.8005  -10.4662   10.0239 H   0  0  0  0  0  0  0  0  0  0  0  0
   20.3450   -8.8255   10.8382 H   0  0  0  0  0  0  0  0  0  0  0  0
   21.4323   -6.6716   10.4832 H   0  0  0  0  0  0  0  0  0  0  0  0
   23.4559   -6.6604    6.3456 H   0  0  0  0  0  0  0  0  0  0  0  0
   22.8051   -6.0307    4.1169 H   0  0  0  0  0  0  0  0  0  0  0  0
   20.8383   -4.7004    3.8145 H   0  0  0  0  0  0  0  0  0  0  0  0
   20.1670   -4.6127    7.8133 H   0  0  0  0  0  0  0  0  0  0  0  0
   20.3944   -7.0253    7.0991 H   0  0  0  0  0  0  0  0  0  0  0  0
   17.7424   -8.5841    5.7340 H   0  0  0  0  0  0  0  0  0  0  0  0
   22.8049   -8.5765    4.1984 H   0  0  0  0  0  0  0  0  0  0  0  0
   22.0176   -8.8504    1.9423 H   0  0  0  0  0  0  0  0  0  0  0  0
   20.1163   -7.1911    0.4914 H   0  0  0  0  0  0  0  0  0  0  0  0
   19.3174   -7.4741   -1.7599 H   0  0  0  0  0  0  0  0  0  0  0  0
   18.2754   -9.5408   -2.3703 H   0  0  0  0  0  0  0  0  0  0  0  0
   18.7958  -11.0182    1.3705 H   0  0  0  0  0  0  0  0  0  0  0  0
  1  2  1  0  0  0  0
  2  3  2  0  0  0  0
  3  4  1  0  0  0  0
  4  5  2  0  0  0  0
  5  6  1  0  0  0  0
  6  7  1  0  0  0  0
  7  8  2  0  0  0  0
  7  9  1  0  0  0  0
  9 10  2  0  0  0  0
 10 11  1  0  0  0  0
 11 12  2  0  0  0  0
 12 13  1  0  0  0  0
 13 14  2  0  0  0  0
  5 15  1  0  0  0  0
 15 16  2  0  0  0  0
 16 17  1  0  0  0  0
 17 18  1  0  0  0  0
 18 19  2  0  0  0  0
 19 20  1  0  0  0  0
 20 21  2  0  0  0  0
 21 22  1  0  0  0  0
 22 23  1  0  0  0  0
 23 24  2  0  0  0  0
 24 25  1  0  0  0  0
 25 26  2  0  0  0  0
 26 27  1  0  0  0  0
 27 28  2  0  0  0  0
 22 29  2  0  0  0  0
 16  2  1  0  0  0  0
 29 18  1  0  0  0  0
 14  9  1  0  0  0  0
 28 23  1  0  0  0  0
  1 30  1  0  0  0  0
  1 31  1  0  0  0  0
  1 32  1  0  0  0  0
  3 33  1  0  0  0  0
  4 34  1  0  0  0  0
  6 35  1  0  0  0  0
 10 36  1  0  0  0  0
 11 37  1  0  0  0  0
 12 38  1  0  0  0  0
 14 39  1  0  0  0  0
 15 40  1  0  0  0  0
 17 41  1  0  0  0  0
 20 42  1  0  0  0  0
 21 43  1  0  0  0  0
 24 44  1  0  0  0  0
 25 45  1  0  0  0  0
 26 46  1  0  0  0  0
 28 47  1  0  0  0  0
M  END
> <BIOSOLVEIT.HYDE_ESTIMATED_AFFINITY_LOWER_BOUNDARY [nM]>
72833788168.293915

> <BIOSOLVEIT.HYDE_ESTIMATED_AFFINITY_UPPER_BOUNDARY [nM]>
7236467481956.004883

> <BIOSOLVEIT.HYDE_LIGAND_EFFICIENCY range: ++, +, 0, -, -->
--

> <BIOSOLVEIT.HYDE_LIGAND_LIPOPHILIC_EFFICIENCY range: ++, +, 0, -, -->
--

> <BIOSOLVEIT.INTER_CLASH range: red, yellow, green>
red

> <BIOSOLVEIT.INTRA_CLASH range: red, yellow, green>
red

> <BIOSOLVEIT.LOGP>
4.23792

> <BIOSOLVEIT.MOLECULAR WEIGHT>
382.425

> <BIOSOLVEIT.MOLECULE_CHECKSUM>
MTYuMzMwMjsw

> <BIOSOLVEIT.TORSION_QUALITY range: red, yellow, green, not rotatable>
red

> <BIOSOLVEIT.TPSA>
92.69

$$$$
1FPU_PRC_2
foHydescor03222115303D 1   1.00000     0.00000     0
Hydescorer 1.1.0 fol007
 47 50  0  0  0  0            999 V2000
   19.1879   -6.1798   20.9117 C   0  0  0  0  0  0  0  0  0  0  0  0
   18.8380   -6.4070   22.3734 C   0  0  0  0  0  0  0  0  0  0  0  0
   19.8595   -6.7154   23.2657 C   0  0  0  0  0  0  0  0  0  0  0  0
   19.5685   -6.9281   24.6094 C   0  0  0  0  0  0  0  0  0  0  0  0
   18.2516   -6.8288   25.0462 C   0  0  0  0  0  0  0  0  0  0  0  0
   17.9481   -7.0411   26.3963 N   0  0  0  0  0  0  0  0  0  0  0  0
   17.5886   -5.9946   27.3110 C   0  0  0  0  0  0  0  0  0  0  0  0
   17.8800   -6.1271   28.5301 O   0  0  0  0  0  0  0  0  0  0  0  0
   16.8442   -4.7917   26.8676 C   0  0  0  0  0  0  0  0  0  0  0  0
   17.4810   -3.8505   26.0655 C   0  0  0  0  0  0  0  0  0  0  0  0
   16.7790   -2.7241   25.6510 C   0  0  0  0  0  0  0  0  0  0  0  0
   15.4564   -2.5751   26.0543 C   0  0  0  0  0  0  0  0  0  0  0  0
   14.8640   -3.4965   26.8282 N   0  0  0  0  0  0  0  0  0  0  0  0
   15.5192   -4.5920   27.2411 C   0  0  0  0  0  0  0  0  0  0  0  0
   17.2246   -6.5209   24.1599 C   0  0  0  0  0  0  0  0  0  0  0  0
   17.5229   -6.3096   22.8175 C   0  0  0  0  0  0  0  0  0  0  0  0
   16.5000   -5.9987   21.9134 N   0  0  0  0  0  0  0  0  0  0  0  0
   15.3351   -6.8186   21.7462 C   0  0  0  0  0  0  0  0  0  0  0  0
   15.0338   -7.7172   22.6951 N   0  0  0  0  0  0  0  0  0  0  0  0
   13.9575   -8.5106   22.5916 C   0  0  0  0  0  0  0  0  0  0  0  0
   13.1313   -8.4034   21.4778 C   0  0  0  0  0  0  0  0  0  0  0  0
   13.4519   -7.4689   20.4990 C   0  0  0  0  0  0  0  0  0  0  0  0
   12.5949   -7.3509   19.3328 C   0  0  0  0  0  0  0  0  0  0  0  0
   12.0748   -8.5002   18.7470 C   0  0  0  0  0  0  0  0  0  0  0  0
   11.2539   -8.3828   17.6310 C   0  0  0  0  0  0  0  0  0  0  0  0
   10.9784   -7.1131   17.1347 C   0  0  0  0  0  0  0  0  0  0  0  0
   11.4920   -6.0193   17.7170 N   0  0  0  0  0  0  0  0  0  0  0  0
   12.2863   -6.1059   18.7946 C   0  0  0  0  0  0  0  0  0  0  0  0
   14.5448   -6.7067   20.6663 N   0  0  0  0  0  0  0  0  0  0  0  0
   18.3560   -5.9689   20.3986 H   0  0  0  0  0  0  0  0  0  0  0  0
   19.8283   -5.4153   20.8373 H   0  0  0  0  0  0  0  0  0  0  0  0
   19.6098   -7.0056   20.5377 H   0  0  0  0  0  0  0  0  0  0  0  0
   20.8029   -6.7842   22.9414 H   0  0  0  0  0  0  0  0  0  0  0  0
   20.2991   -7.1502   25.2551 H   0  0  0  0  0  0  0  0  0  0  0  0
   17.9838   -7.9779   26.7444 H   0  0  0  0  0  0  0  0  0  0  0  0
   18.4332   -3.9825   25.7901 H   0  0  0  0  0  0  0  0  0  0  0  0
   17.2167   -2.0345   25.0739 H   0  0  0  0  0  0  0  0  0  0  0  0
   14.9400   -1.7698   25.7632 H   0  0  0  0  0  0  0  0  0  0  0  0
   15.0552   -5.2648   27.8173 H   0  0  0  0  0  0  0  0  0  0  0  0
   16.2812   -6.4520   24.4845 H   0  0  0  0  0  0  0  0  0  0  0  0
   16.5852   -5.1696   21.3608 H   0  0  0  0  0  0  0  0  0  0  0  0
   13.7504   -9.1745   23.3102 H   0  0  0  0  0  0  0  0  0  0  0  0
   12.3240   -8.9859   21.3828 H   0  0  0  0  0  0  0  0  0  0  0  0
   12.2890   -9.4011   19.1244 H   0  0  0  0  0  0  0  0  0  0  0  0
   10.8690   -9.1956   17.1937 H   0  0  0  0  0  0  0  0  0  0  0  0
   10.3894   -7.0144   16.3326 H   0  0  0  0  0  0  0  0  0  0  0  0
   12.6566   -5.2755   19.2109 H   0  0  0  0  0  0  0  0  0  0  0  0
  1  2  1  0  0  0  0
  2  3  2  0  0  0  0
  3  4  1  0  0  0  0
  4  5  2  0  0  0  0
  5  6  1  0  0  0  0
  6  7  1  0  0  0  0
  7  8  2  0  0  0  0
  7  9  1  0  0  0  0
  9 10  2  0  0  0  0
 10 11  1  0  0  0  0
 11 12  2  0  0  0  0
 12 13  1  0  0  0  0
 13 14  2  0  0  0  0
  5 15  1  0  0  0  0
 15 16  2  0  0  0  0
 16 17  1  0  0  0  0
 17 18  1  0  0  0  0
 18 19  2  0  0  0  0
 19 20  1  0  0  0  0
 20 21  2  0  0  0  0
 21 22  1  0  0  0  0
 22 23  1  0  0  0  0
 23 24  2  0  0  0  0
 24 25  1  0  0  0  0
 25 26  2  0  0  0  0
 26 27  1  0  0  0  0
 27 28  2  0  0  0  0
 22 29  2  0  0  0  0
 16  2  1  0  0  0  0
 29 18  1  0  0  0  0
 14  9  1  0  0  0  0
 28 23  1  0  0  0  0
  1 30  1  0  0  0  0
  1 31  1  0  0  0  0
  1 32  1  0  0  0  0
  3 33  1  0  0  0  0
  4 34  1  0  0  0  0
  6 35  1  0  0  0  0
 10 36  1  0  0  0  0
 11 37  1  0  0  0  0
 12 38  1  0  0  0  0
 14 39  1  0  0  0  0
 15 40  1  0  0  0  0
 17 41  1  0  0  0  0
 20 42  1  0  0  0  0
 21 43  1  0  0  0  0
 24 44  1  0  0  0  0
 25 45  1  0  0  0  0
 26 46  1  0  0  0  0
 28 47  1  0  0  0  0
M  END
> <BIOSOLVEIT.HYDE_ESTIMATED_AFFINITY_LOWER_BOUNDARY [nM]>
4812296.320182

> <BIOSOLVEIT.HYDE_ESTIMATED_AFFINITY_UPPER_BOUNDARY [nM]>
478130091.957710

> <BIOSOLVEIT.HYDE_LIGAND_EFFICIENCY range: ++, +, 0, -, -->
--

> <BIOSOLVEIT.HYDE_LIGAND_LIPOPHILIC_EFFICIENCY range: ++, +, 0, -, -->
--

> <BIOSOLVEIT.INTER_CLASH range: red, yellow, green>
yellow

> <BIOSOLVEIT.INTRA_CLASH range: red, yellow, green>
yellow

> <BIOSOLVEIT.LOGP>
4.23792

> <BIOSOLVEIT.MOLECULAR WEIGHT>
382.425

> <BIOSOLVEIT.MOLECULE_CHECKSUM>
LTcuNTI5MTU7MC4yNTk2MjY=

> <BIOSOLVEIT.TORSION_QUALITY range: red, yellow, green, not rotatable>
red

> <BIOSOLVEIT.TPSA>
92.69

$$$$
1FPU_PRC_3
foHydescor03222115303D 1   1.00000     0.00000     0
Hydescorer 1.1.0 fol007
 47 50  0  0  0  0            999 V2000
   20.4183   -6.0845   20.3113 C   0  0  0  0  0  0  0  0  0  0  0  0
   19.9805   -6.6655   21.6459 C   0  0  0  0  0  0  0  0  0  0  0  0
   20.9494   -6.9434   22.6046 C   0  0  0  0  0  0  0  0  0  0  0  0
   20.5777   -7.4753   23.8352 C   0  0  0  0  0  0  0  0  0  0  0  0
   19.2336   -7.7236   24.0931 C   0  0  0  0  0  0  0  0  0  0  0  0
   18.8491   -8.2589   25.3282 N   0  0  0  0  0  0  0  0  0  0  0  0
   18.2079   -7.5008   26.3653 C   0  0  0  0  0  0  0  0  0  0  0  0
   18.4014   -7.8306   27.5663 O   0  0  0  0  0  0  0  0  0  0  0  0
   17.2907   -6.3773   26.0580 C   0  0  0  0  0  0  0  0  0  0  0  0
   16.0293   -6.3448   26.6429 C   0  0  0  0  0  0  0  0  0  0  0  0
   15.1724   -5.2890   26.3529 C   0  0  0  0  0  0  0  0  0  0  0  0
   15.6074   -4.2949   25.4828 C   0  0  0  0  0  0  0  0  0  0  0  0
   16.8287   -4.3484   24.9309 N   0  0  0  0  0  0  0  0  0  0  0  0
   17.6741   -5.3562   25.1948 C   0  0  0  0  0  0  0  0  0  0  0  0
   18.2588   -7.4484   23.1395 C   0  0  0  0  0  0  0  0  0  0  0  0
   18.6379   -6.9168   21.9108 C   0  0  0  0  0  0  0  0  0  0  0  0
   17.6683   -6.6343   20.9411 N   0  0  0  0  0  0  0  0  0  0  0  0
   16.2606   -6.7319   21.1985 C   0  0  0  0  0  0  0  0  0  0  0  0
   15.8304   -6.6987   22.4683 N   0  0  0  0  0  0  0  0  0  0  0  0
   14.5261   -6.7861   22.7683 C   0  0  0  0  0  0  0  0  0  0  0  0
   13.5942   -6.9140   21.7437 C   0  0  0  0  0  0  0  0  0  0  0  0
   14.0497   -6.9478   20.4301 C   0  0  0  0  0  0  0  0  0  0  0  0
   13.0834   -7.0815   19.3546 C   0  0  0  0  0  0  0  0  0  0  0  0
   12.6001   -8.3426   19.0223 C   0  0  0  0  0  0  0  0  0  0  0  0
   11.6743   -8.4664   17.9924 C   0  0  0  0  0  0  0  0  0  0  0  0
   11.2597   -7.3187   17.3250 C   0  0  0  0  0  0  0  0  0  0  0  0
   11.7404   -6.1131   17.6638 N   0  0  0  0  0  0  0  0  0  0  0  0
   12.6340   -5.9671   18.6537 C   0  0  0  0  0  0  0  0  0  0  0  0
   15.3698   -6.8554   20.2012 N   0  0  0  0  0  0  0  0  0  0  0  0
   19.6163   -5.9400   19.7316 H   0  0  0  0  0  0  0  0  0  0  0  0
   20.8813   -5.2113   20.4636 H   0  0  0  0  0  0  0  0  0  0  0  0
   21.0451   -6.7200   19.8605 H   0  0  0  0  0  0  0  0  0  0  0  0
   21.9130   -6.7609   22.4092 H   0  0  0  0  0  0  0  0  0  0  0  0
   21.2702   -7.6771   24.5278 H   0  0  0  0  0  0  0  0  0  0  0  0
   19.0319   -9.2272   25.4983 H   0  0  0  0  0  0  0  0  0  0  0  0
   15.7419   -7.0728   27.2652 H   0  0  0  0  0  0  0  0  0  0  0  0
   14.2609   -5.2452   26.7620 H   0  0  0  0  0  0  0  0  0  0  0  0
   15.0012   -3.5298   25.2657 H   0  0  0  0  0  0  0  0  0  0  0  0
   18.5797   -5.3732   24.7710 H   0  0  0  0  0  0  0  0  0  0  0  0
   17.2952   -7.6308   23.3351 H   0  0  0  0  0  0  0  0  0  0  0  0
   17.9700   -6.3525   20.0303 H   0  0  0  0  0  0  0  0  0  0  0  0
   14.2258   -6.7595   23.7218 H   0  0  0  0  0  0  0  0  0  0  0  0
   12.6173   -6.9803   21.9472 H   0  0  0  0  0  0  0  0  0  0  0  0
   12.9151   -9.1516   19.5186 H   0  0  0  0  0  0  0  0  0  0  0  0
   11.3134   -9.3632   17.7364 H   0  0  0  0  0  0  0  0  0  0  0  0
   10.5941   -7.3933   16.5825 H   0  0  0  0  0  0  0  0  0  0  0  0
   12.9769   -5.0574   18.8877 H   0  0  0  0  0  0  0  0  0  0  0  0
  1  2  1  0  0  0  0
  2  3  2  0  0  0  0
  3  4  1  0  0  0  0
  4  5  2  0  0  0  0
  5  6  1  0  0  0  0
  6  7  1  0  0  0  0
  7  8  2  0  0  0  0
  7  9  1  0  0  0  0
  9 10  2  0  0  0  0
 10 11  1  0  0  0  0
 11 12  2  0  0  0  0
 12 13  1  0  0  0  0
 13 14  2  0  0  0  0
  5 15  1  0  0  0  0
 15 16  2  0  0  0  0
 16 17  1  0  0  0  0
 17 18  1  0  0  0  0
 18 19  2  0  0  0  0
 19 20  1  0  0  0  0
 20 21  2  0  0  0  0
 21 22  1  0  0  0  0
 22 23  1  0  0  0  0
 23 24  2  0  0  0  0
 24 25  1  0  0  0  0
 25 26  2  0  0  0  0
 26 27  1  0  0  0  0
 27 28  2  0  0  0  0
 22 29  2  0  0  0  0
 16  2  1  0  0  0  0
 29 18  1  0  0  0  0
 14  9  1  0  0  0  0
 28 23  1  0  0  0  0
  1 30  1  0  0  0  0
  1 31  1  0  0  0  0
  1 32  1  0  0  0  0
  3 33  1  0  0  0  0
  4 34  1  0  0  0  0
  6 35  1  0  0  0  0
 10 36  1  0  0  0  0
 11 37  1  0  0  0  0
 12 38  1  0  0  0  0
 14 39  1  0  0  0  0
 15 40  1  0  0  0  0
 17 41  1  0  0  0  0
 20 42  1  0  0  0  0
 21 43  1  0  0  0  0
 24 44  1  0  0  0  0
 25 45  1  0  0  0  0
 26 46  1  0  0  0  0
 28 47  1  0  0  0  0
M  END
> <BIOSOLVEIT.HYDE_ESTIMATED_AFFINITY_LOWER_BOUNDARY [nM]>
405065.756009

> <BIOSOLVEIT.HYDE_ESTIMATED_AFFINITY_UPPER_BOUNDARY [nM]>
40245677.797820

> <BIOSOLVEIT.HYDE_LIGAND_EFFICIENCY range: ++, +, 0, -, -->
--

> <BIOSOLVEIT.HYDE_LIGAND_LIPOPHILIC_EFFICIENCY range: ++, +, 0, -, -->
--

> <BIOSOLVEIT.INTER_CLASH range: red, yellow, green>
red

> <BIOSOLVEIT.INTRA_CLASH range: red, yellow, green>
red

> <BIOSOLVEIT.LOGP>
4.23792

> <BIOSOLVEIT.MOLECULAR WEIGHT>
382.425

> <BIOSOLVEIT.MOLECULE_CHECKSUM>
LTEzLjY2NDM7MC40NzExODI=

> <BIOSOLVEIT.TORSION_QUALITY range: red, yellow, green, not rotatable>
red

> <BIOSOLVEIT.TPSA>
92.69

$$$$
6HD6_FYH_1
foHydescor03222115303D 1   1.00000     0.00000     0
Hydescorer 1.1.0 fol007
 47 49  0  0  0  0            999 V2000
   14.1938   -8.1807   17.3210 O   0  0  0  0  0  0  0  0  0  0  0  0
   15.0092   -8.1603   18.2840 C   0  0  0  0  0  0  0  0  0  0  0  0
   16.2457   -8.8871   18.1850 N   0  0  0  0  0  0  0  0  0  0  0  0
   16.9347   -9.1260   16.9451 C   0  0  0  0  0  0  0  0  0  0  0  0
   16.7215   -8.2746   15.8655 C   0  0  0  0  0  0  0  0  0  0  0  0
   17.3837   -8.4978   14.6622 C   0  0  0  0  0  0  0  0  0  0  0  0
   18.2543   -9.5773   14.5565 C   0  0  0  0  0  0  0  0  0  0  0  0
   18.9021   -9.8052   13.3949 O   0  0  0  0  0  0  0  0  0  0  0  0
   18.4214  -10.6233   12.3304 C   0  0  0  0  0  0  0  0  0  0  0  0
   17.2171  -10.1327   11.8585 F   0  0  0  0  0  0  0  0  0  0  0  0
   18.2244  -11.9056   12.8047 F   0  0  0  0  0  0  0  0  0  0  0  0
   19.3488  -10.6648   11.3048 F   0  0  0  0  0  0  0  0  0  0  0  0
   18.4732  -10.4346   15.6309 C   0  0  0  0  0  0  0  0  0  0  0  0
   17.8073  -10.2037   16.8301 C   0  0  0  0  0  0  0  0  0  0  0  0
   14.6554   -7.4271   19.5242 C   0  0  0  0  0  0  0  0  0  0  0  0
   13.7946   -6.3361   19.4616 C   0  0  0  0  0  0  0  0  0  0  0  0
   13.4740   -5.6608   20.6349 C   0  0  0  0  0  0  0  0  0  0  0  0
   14.0008   -6.0616   21.8583 C   0  0  0  0  0  0  0  0  0  0  0  0
   14.8595   -7.1558   21.8977 C   0  0  0  0  0  0  0  0  0  0  0  0
   15.4411   -7.6034   23.2295 C   0  0  0  0  0  0  0  0  0  0  0  0
   16.5314   -6.7096   23.6851 N   0  3  0  0  0  0  0  0  0  0  0  0
   16.0128   -5.5147   24.3662 C   0  0  0  0  0  0  0  0  0  0  0  0
   17.1444   -4.5987   24.8123 C   0  0  0  0  0  0  0  0  0  0  0  0
   18.4193   -5.1835   24.5707 O   0  0  0  0  0  0  0  0  0  0  0  0
   18.5442   -6.4974   25.1032 C   0  0  0  0  0  0  0  0  0  0  0  0
   17.4340   -7.4121   24.6101 C   0  0  0  0  0  0  0  0  0  0  0  0
   15.1935   -7.8456   20.7367 C   0  0  0  0  0  0  0  0  0  0  0  0
   16.6498   -9.2469   19.0260 H   0  0  0  0  0  0  0  0  0  0  0  0
   16.0925   -7.5023   15.9544 H   0  0  0  0  0  0  0  0  0  0  0  0
   17.2354   -7.8893   13.8827 H   0  0  0  0  0  0  0  0  0  0  0  0
   19.1016  -11.2073   15.5418 H   0  0  0  0  0  0  0  0  0  0  0  0
   17.9558  -10.8122   17.6096 H   0  0  0  0  0  0  0  0  0  0  0  0
   13.4117   -6.0416   18.5860 H   0  0  0  0  0  0  0  0  0  0  0  0
   12.8557   -4.8757   20.5982 H   0  0  0  0  0  0  0  0  0  0  0  0
   13.7659   -5.5706   22.6972 H   0  0  0  0  0  0  0  0  0  0  0  0
   15.8035   -8.5300   23.1288 H   0  0  0  0  0  0  0  0  0  0  0  0
   14.7142   -7.6025   23.9162 H   0  0  0  0  0  0  0  0  0  0  0  0
   17.0582   -6.4175   22.8868 H   0  0  0  0  0  0  0  0  0  0  0  0
   15.4879   -5.7989   25.1686 H   0  0  0  0  0  0  0  0  0  0  0  0
   15.4168   -5.0144   23.7382 H   0  0  0  0  0  0  0  0  0  0  0  0
   17.0500   -4.4198   25.7917 H   0  0  0  0  0  0  0  0  0  0  0  0
   17.0820   -3.7371   24.3085 H   0  0  0  0  0  0  0  0  0  0  0  0
   18.5040   -6.4478   26.1011 H   0  0  0  0  0  0  0  0  0  0  0  0
   19.4257   -6.8780   24.8236 H   0  0  0  0  0  0  0  0  0  0  0  0
   16.9068   -7.7367   25.3955 H   0  0  0  0  0  0  0  0  0  0  0  0
   17.8418   -8.1930   24.1367 H   0  0  0  0  0  0  0  0  0  0  0  0
   15.8114   -8.6309   20.7732 H   0  0  0  0  0  0  0  0  0  0  0  0
  1  2  2  0  0  0  0
  2  3  1  0  0  0  0
  3  4  1  0  0  0  0
  4  5  2  0  0  0  0
  5  6  1  0  0  0  0
  6  7  2  0  0  0  0
  7  8  1  0  0  0  0
  8  9  1  0  0  0  0
  9 10  1  0  0  0  0
  9 11  1  0  0  0  0
  9 12  1  0  0  0  0
  7 13  1  0  0  0  0
 13 14  2  0  0  0  0
  2 15  1  0  0  0  0
 15 16  2  0  0  0  0
 16 17  1  0  0  0  0
 17 18  2  0  0  0  0
 18 19  1  0  0  0  0
 19 20  1  0  0  0  0
 20 21  1  0  0  0  0
 21 22  1  0  0  0  0
 22 23  1  0  0  0  0
 23 24  1  0  0  0  0
 24 25  1  0  0  0  0
 25 26  1  0  0  0  0
 19 27  2  0  0  0  0
 14  4  1  0  0  0  0
 27 15  1  0  0  0  0
 26 21  1  0  0  0  0
  3 28  1  0  0  0  0
  5 29  1  0  0  0  0
  6 30  1  0  0  0  0
 13 31  1  0  0  0  0
 14 32  1  0  0  0  0
 16 33  1  0  0  0  0
 17 34  1  0  0  0  0
 18 35  1  0  0  0  0
 20 36  1  0  0  0  0
 20 37  1  0  0  0  0
 21 38  1  0  0  0  0
 22 39  1  0  0  0  0
 22 40  1  0  0  0  0
 23 41  1  0  0  0  0
 23 42  1  0  0  0  0
 25 43  1  0  0  0  0
 25 44  1  0  0  0  0
 26 45  1  0  0  0  0
 26 46  1  0  0  0  0
 27 47  1  0  0  0  0
M  CHG  1  21   1
M  END
> <BIOSOLVEIT.HYDE_ESTIMATED_AFFINITY_LOWER_BOUNDARY [nM]>
889.183942

> <BIOSOLVEIT.HYDE_ESTIMATED_AFFINITY_UPPER_BOUNDARY [nM]>
88345.681909

> <BIOSOLVEIT.HYDE_LIGAND_EFFICIENCY range: ++, +, 0, -, -->
-

> <BIOSOLVEIT.HYDE_LIGAND_LIPOPHILIC_EFFICIENCY range: ++, +, 0, -, -->
-

> <BIOSOLVEIT.INTER_CLASH range: red, yellow, green>
yellow

> <BIOSOLVEIT.INTRA_CLASH range: red, yellow, green>
green

> <BIOSOLVEIT.LOGP>
2.2526

> <BIOSOLVEIT.MOLECULAR WEIGHT>
381.372

> <BIOSOLVEIT.MOLECULE_CHECKSUM>
LTI4LjgzOTI7MS4wNjgxMg==

> <BIOSOLVEIT.TORSION_QUALITY range: red, yellow, green, not rotatable>
green

> <BIOSOLVEIT.TPSA>
52

$$$$
6HD6_FYH_2
foHydescor03222115303D 1   1.00000     0.00000     0
Hydescorer 1.1.0 fol007
 47 49  0  0  0  0            999 V2000
   14.5833   -7.8928   17.2501 O   0  0  0  0  0  0  0  0  0  0  0  0
   15.4172   -8.0986   18.1746 C   0  0  0  0  0  0  0  0  0  0  0  0
   16.5080   -9.0104   17.9590 N   0  0  0  0  0  0  0  0  0  0  0  0
   17.1101   -9.2457   16.6741 C   0  0  0  0  0  0  0  0  0  0  0  0
   16.7835   -8.4225   15.6011 C   0  0  0  0  0  0  0  0  0  0  0  0
   17.3611   -8.6426   14.3544 C   0  0  0  0  0  0  0  0  0  0  0  0
   18.2624   -9.6906   14.1993 C   0  0  0  0  0  0  0  0  0  0  0  0
   18.8289   -9.9150   12.9953 O   0  0  0  0  0  0  0  0  0  0  0  0
   18.1294   -9.9762   11.7542 C   0  0  0  0  0  0  0  0  0  0  0  0
   17.4828   -8.7774   11.5117 F   0  0  0  0  0  0  0  0  0  0  0  0
   17.1876  -10.9844   11.8199 F   0  0  0  0  0  0  0  0  0  0  0  0
   19.0096  -10.2546   10.7239 F   0  0  0  0  0  0  0  0  0  0  0  0
   18.5946  -10.5194   15.2668 C   0  0  0  0  0  0  0  0  0  0  0  0
   18.0126  -10.2919   16.5095 C   0  0  0  0  0  0  0  0  0  0  0  0
   15.2298   -7.4344   19.4876 C   0  0  0  0  0  0  0  0  0  0  0  0
   13.9809   -6.9306   19.8363 C   0  0  0  0  0  0  0  0  0  0  0  0
   13.8238   -6.3108   21.0719 C   0  0  0  0  0  0  0  0  0  0  0  0
   14.8930   -6.1910   21.9538 C   0  0  0  0  0  0  0  0  0  0  0  0
   16.1331   -6.7025   21.5846 C   0  0  0  0  0  0  0  0  0  0  0  0
   17.3089   -6.5777   22.5406 C   0  0  0  0  0  0  0  0  0  0  0  0
   16.8651   -6.3993   23.9430 N   0  3  0  0  0  0  0  0  0  0  0  0
   18.0102   -6.2740   24.8581 C   0  0  0  0  0  0  0  0  0  0  0  0
   17.5549   -6.1714   26.3051 C   0  0  0  0  0  0  0  0  0  0  0  0
   16.1360   -6.1970   26.4147 O   0  0  0  0  0  0  0  0  0  0  0  0
   15.5488   -7.3384   25.8010 C   0  0  0  0  0  0  0  0  0  0  0  0
   16.0137   -7.5222   24.3655 C   0  0  0  0  0  0  0  0  0  0  0  0
   16.3126   -7.3259   20.3539 C   0  0  0  0  0  0  0  0  0  0  0  0
   16.8684   -9.5092   18.7472 H   0  0  0  0  0  0  0  0  0  0  0  0
   16.1336   -7.6727   15.7258 H   0  0  0  0  0  0  0  0  0  0  0  0
   17.1310   -8.0543   13.5792 H   0  0  0  0  0  0  0  0  0  0  0  0
   19.2440  -11.2696   15.1419 H   0  0  0  0  0  0  0  0  0  0  0  0
   18.2428  -10.8803   17.2847 H   0  0  0  0  0  0  0  0  0  0  0  0
   13.2074   -7.0127   19.2079 H   0  0  0  0  0  0  0  0  0  0  0  0
   12.9290   -5.9460   21.3299 H   0  0  0  0  0  0  0  0  0  0  0  0
   14.7720   -5.7438   22.8400 H   0  0  0  0  0  0  0  0  0  0  0  0
   17.8604   -5.7875   22.2731 H   0  0  0  0  0  0  0  0  0  0  0  0
   17.8639   -7.4073   22.4804 H   0  0  0  0  0  0  0  0  0  0  0  0
   16.3262   -5.5587   23.9973 H   0  0  0  0  0  0  0  0  0  0  0  0
   18.5280   -5.4522   24.6208 H   0  0  0  0  0  0  0  0  0  0  0  0
   18.5965   -7.0780   24.7576 H   0  0  0  0  0  0  0  0  0  0  0  0
   17.8942   -5.3137   26.6913 H   0  0  0  0  0  0  0  0  0  0  0  0
   17.9334   -6.9413   26.8190 H   0  0  0  0  0  0  0  0  0  0  0  0
   14.5546   -7.2309   25.8062 H   0  0  0  0  0  0  0  0  0  0  0  0
   15.7990   -8.1512   26.3270 H   0  0  0  0  0  0  0  0  0  0  0  0
   15.2148   -7.5712   23.7661 H   0  0  0  0  0  0  0  0  0  0  0  0
   16.5350   -8.3727   24.2963 H   0  0  0  0  0  0  0  0  0  0  0  0
   17.2072   -7.6908   20.0958 H   0  0  0  0  0  0  0  0  0  0  0  0
  1  2  2  0  0  0  0
  2  3  1  0  0  0  0
  3  4  1  0  0  0  0
  4  5  2  0  0  0  0
  5  6  1  0  0  0  0
  6  7  2  0  0  0  0
  7  8  1  0  0  0  0
  8  9  1  0  0  0  0
  9 10  1  0  0  0  0
  9 11  1  0  0  0  0
  9 12  1  0  0  0  0
  7 13  1  0  0  0  0
 13 14  2  0  0  0  0
  2 15  1  0  0  0  0
 15 16  2  0  0  0  0
 16 17  1  0  0  0  0
 17 18  2  0  0  0  0
 18 19  1  0  0  0  0
 19 20  1  0  0  0  0
 20 21  1  0  0  0  0
 21 22  1  0  0  0  0
 22 23  1  0  0  0  0
 23 24  1  0  0  0  0
 24 25  1  0  0  0  0
 25 26  1  0  0  0  0
 19 27  2  0  0  0  0
 14  4  1  0  0  0  0
 27 15  1  0  0  0  0
 26 21  1  0  0  0  0
  3 28  1  0  0  0  0
  5 29  1  0  0  0  0
  6 30  1  0  0  0  0
 13 31  1  0  0  0  0
 14 32  1  0  0  0  0
 16 33  1  0  0  0  0
 17 34  1  0  0  0  0
 18 35  1  0  0  0  0
 20 36  1  0  0  0  0
 20 37  1  0  0  0  0
 21 38  1  0  0  0  0
 22 39  1  0  0  0  0
 22 40  1  0  0  0  0
 23 41  1  0  0  0  0
 23 42  1  0  0  0  0
 25 43  1  0  0  0  0
 25 44  1  0  0  0  0
 26 45  1  0  0  0  0
 26 46  1  0  0  0  0
 27 47  1  0  0  0  0
M  CHG  1  21   1
M  END
> <BIOSOLVEIT.HYDE_ESTIMATED_AFFINITY_LOWER_BOUNDARY [nM]>
284.508891

> <BIOSOLVEIT.HYDE_ESTIMATED_AFFINITY_UPPER_BOUNDARY [nM]>
28267.640437

> <BIOSOLVEIT.HYDE_LIGAND_EFFICIENCY range: ++, +, 0, -, -->
-

> <BIOSOLVEIT.HYDE_LIGAND_LIPOPHILIC_EFFICIENCY range: ++, +, 0, -, -->
-

> <BIOSOLVEIT.INTER_CLASH range: red, yellow, green>
red

> <BIOSOLVEIT.INTRA_CLASH range: red, yellow, green>
yellow

> <BIOSOLVEIT.LOGP>
2.2526

> <BIOSOLVEIT.MOLECULAR WEIGHT>
381.372

> <BIOSOLVEIT.MOLECULE_CHECKSUM>
LTMxLjY2NDE7MS4xNzI3NA==

> <BIOSOLVEIT.TORSION_QUALITY range: red, yellow, green, not rotatable>
yellow

> <BIOSOLVEIT.TPSA>
52

$$$$
6HD6_FYH_3
foHydescor03222115303D 1   1.00000     0.00000     0
Hydescorer 1.1.0 fol007
 47 49  0  0  0  0            999 V2000
   14.2388   -7.7839   18.0086 O   0  0  0  0  0  0  0  0  0  0  0  0
   15.2022   -8.0613   18.7752 C   0  0  0  0  0  0  0  0  0  0  0  0
   16.2280   -8.9653   18.3302 N   0  0  0  0  0  0  0  0  0  0  0  0
   16.6183   -9.1154   16.9541 C   0  0  0  0  0  0  0  0  0  0  0  0
   16.0231   -8.3196   15.9803 C   0  0  0  0  0  0  0  0  0  0  0  0
   16.3945   -8.4578   14.6465 C   0  0  0  0  0  0  0  0  0  0  0  0
   17.3619   -9.3970   14.3048 C   0  0  0  0  0  0  0  0  0  0  0  0
   17.7303   -9.5412   13.0147 O   0  0  0  0  0  0  0  0  0  0  0  0
   18.6997  -10.4696   12.5336 C   0  0  0  0  0  0  0  0  0  0  0  0
   18.3112  -11.7630   12.8335 F   0  0  0  0  0  0  0  0  0  0  0  0
   19.9093  -10.2142   13.1499 F   0  0  0  0  0  0  0  0  0  0  0  0
   18.8574  -10.3290   11.1665 F   0  0  0  0  0  0  0  0  0  0  0  0
   17.9622  -10.1977   15.2720 C   0  0  0  0  0  0  0  0  0  0  0  0
   17.5852  -10.0526   16.6030 C   0  0  0  0  0  0  0  0  0  0  0  0
   15.2342   -7.4891   20.1434 C   0  0  0  0  0  0  0  0  0  0  0  0
   14.0516   -7.0779   20.7495 C   0  0  0  0  0  0  0  0  0  0  0  0
   14.1008   -6.5436   22.0331 C   0  0  0  0  0  0  0  0  0  0  0  0
   15.3096   -6.4177   22.7101 C   0  0  0  0  0  0  0  0  0  0  0  0
   16.4802   -6.8358   22.0849 C   0  0  0  0  0  0  0  0  0  0  0  0
   17.8071   -6.7033   22.8154 C   0  0  0  0  0  0  0  0  0  0  0  0
   18.1571   -5.2870   23.0742 N   0  3  0  0  0  0  0  0  0  0  0  0
   17.8527   -4.8905   24.4565 C   0  0  0  0  0  0  0  0  0  0  0  0
   18.2014   -3.4285   24.7009 C   0  0  0  0  0  0  0  0  0  0  0  0
   18.8468   -2.8473   23.5732 O   0  0  0  0  0  0  0  0  0  0  0  0
   19.9637   -3.6011   23.1152 C   0  0  0  0  0  0  0  0  0  0  0  0
   19.5877   -5.0468   22.8301 C   0  0  0  0  0  0  0  0  0  0  0  0
   16.4539   -7.3728   20.8019 C   0  0  0  0  0  0  0  0  0  0  0  0
   16.6967   -9.5212   19.0166 H   0  0  0  0  0  0  0  0  0  0  0  0
   15.3285   -7.6484   16.2391 H   0  0  0  0  0  0  0  0  0  0  0  0
   15.9709   -7.8885   13.9418 H   0  0  0  0  0  0  0  0  0  0  0  0
   18.6563  -10.8694   15.0132 H   0  0  0  0  0  0  0  0  0  0  0  0
   18.0089  -10.6218   17.3076 H   0  0  0  0  0  0  0  0  0  0  0  0
   13.1786   -7.1650   20.2695 H   0  0  0  0  0  0  0  0  0  0  0  0
   13.2549   -6.2458   22.4757 H   0  0  0  0  0  0  0  0  0  0  0  0
   15.3368   -6.0323   23.6324 H   0  0  0  0  0  0  0  0  0  0  0  0
   18.5262   -7.1171   22.2570 H   0  0  0  0  0  0  0  0  0  0  0  0
   17.7446   -7.1856   23.6892 H   0  0  0  0  0  0  0  0  0  0  0  0
   17.6269   -4.7095   22.4533 H   0  0  0  0  0  0  0  0  0  0  0  0
   18.3828   -5.4613   25.0835 H   0  0  0  0  0  0  0  0  0  0  0  0
   16.8766   -5.0257   24.6270 H   0  0  0  0  0  0  0  0  0  0  0  0
   18.8118   -3.3682   25.4907 H   0  0  0  0  0  0  0  0  0  0  0  0
   17.3603   -2.9218   24.8902 H   0  0  0  0  0  0  0  0  0  0  0  0
   20.6760   -3.5839   23.8169 H   0  0  0  0  0  0  0  0  0  0  0  0
   20.3128   -3.1854   22.2755 H   0  0  0  0  0  0  0  0  0  0  0  0
   20.1243   -5.6459   23.4244 H   0  0  0  0  0  0  0  0  0  0  0  0
   19.7940   -5.2542   21.8738 H   0  0  0  0  0  0  0  0  0  0  0  0
   17.2996   -7.6709   20.3594 H   0  0  0  0  0  0  0  0  0  0  0  0
  1  2  2  0  0  0  0
  2  3  1  0  0  0  0
  3  4  1  0  0  0  0
  4  5  2  0  0  0  0
  5  6  1  0  0  0  0
  6  7  2  0  0  0  0
  7  8  1  0  0  0  0
  8  9  1  0  0  0  0
  9 10  1  0  0  0  0
  9 11  1  0  0  0  0
  9 12  1  0  0  0  0
  7 13  1  0  0  0  0
 13 14  2  0  0  0  0
  2 15  1  0  0  0  0
 15 16  2  0  0  0  0
 16 17  1  0  0  0  0
 17 18  2  0  0  0  0
 18 19  1  0  0  0  0
 19 20  1  0  0  0  0
 20 21  1  0  0  0  0
 21 22  1  0  0  0  0
 22 23  1  0  0  0  0
 23 24  1  0  0  0  0
 24 25  1  0  0  0  0
 25 26  1  0  0  0  0
 19 27  2  0  0  0  0
 14  4  1  0  0  0  0
 27 15  1  0  0  0  0
 26 21  1  0  0  0  0
  3 28  1  0  0  0  0
  5 29  1  0  0  0  0
  6 30  1  0  0  0  0
 13 31  1  0  0  0  0
 14 32  1  0  0  0  0
 16 33  1  0  0  0  0
 17 34  1  0  0  0  0
 18 35  1  0  0  0  0
 20 36  1  0  0  0  0
 20 37  1  0  0  0  0
 21 38  1  0  0  0  0
 22 39  1  0  0  0  0
 22 40  1  0  0  0  0
 23 41  1  0  0  0  0
 23 42  1  0  0  0  0
 25 43  1  0  0  0  0
 25 44  1  0  0  0  0
 26 45  1  0  0  0  0
 26 46  1  0  0  0  0
 27 47  1  0  0  0  0
M  CHG  1  21   1
M  END
> <BIOSOLVEIT.HYDE_ESTIMATED_AFFINITY_LOWER_BOUNDARY [nM]>
17006.925432

> <BIOSOLVEIT.HYDE_ESTIMATED_AFFINITY_UPPER_BOUNDARY [nM]>
1689738.594532

> <BIOSOLVEIT.HYDE_LIGAND_EFFICIENCY range: ++, +, 0, -, -->
--

> <BIOSOLVEIT.HYDE_LIGAND_LIPOPHILIC_EFFICIENCY range: ++, +, 0, -, -->
--

> <BIOSOLVEIT.INTER_CLASH range: red, yellow, green>
green

> <BIOSOLVEIT.INTRA_CLASH range: red, yellow, green>
yellow

> <BIOSOLVEIT.LOGP>
2.2526

> <BIOSOLVEIT.MOLECULAR WEIGHT>
381.372

> <BIOSOLVEIT.MOLECULE_CHECKSUM>
LTIxLjUyMzY7MC43OTcxNzI=

> <BIOSOLVEIT.TORSION_QUALITY range: red, yellow, green, not rotatable>
yellow

> <BIOSOLVEIT.TPSA>
52

$$$$
6HD4_FYW_1
foHydescor03222115303D 1   1.00000     0.00000     0
Hydescorer 1.1.0 fol007
 50 53  0  0  0  0            999 V2000
   15.5791   -9.6673    8.3361 O   0  0  0  0  0  0  0  0  0  0  0  0
   16.5292   -9.7519    9.1594 C   0  0  0  0  0  0  0  0  0  0  0  0
   16.4313  -10.7038   10.2322 N   0  0  0  0  0  0  0  0  0  0  0  0
   17.0393  -10.5368   11.5255 C   0  0  0  0  0  0  0  0  0  0  0  0
   16.2543  -10.1575   12.6098 C   0  0  0  0  0  0  0  0  0  0  0  0
   16.8335   -9.9938   13.8644 C   0  0  0  0  0  0  0  0  0  0  0  0
   18.1987  -10.2128   14.0156 C   0  0  0  0  0  0  0  0  0  0  0  0
   18.7727  -10.0567   15.2269 O   0  0  0  0  0  0  0  0  0  0  0  0
   18.5930  -10.9276   16.3416 C   0  0  0  0  0  0  0  0  0  0  0  0
   19.0167  -12.2052   16.0216 F   0  0  0  0  0  0  0  0  0  0  0  0
   17.2506  -10.9713   16.6643 F   0  0  0  0  0  0  0  0  0  0  0  0
   19.2990  -10.4559   17.4338 F   0  0  0  0  0  0  0  0  0  0  0  0
   18.9917  -10.5919   12.9366 C   0  0  0  0  0  0  0  0  0  0  0  0
   18.4042  -10.7537   11.6863 C   0  0  0  0  0  0  0  0  0  0  0  0
   17.7286   -8.8991    8.9722 C   0  0  0  0  0  0  0  0  0  0  0  0
   18.3240   -8.2310   10.0374 C   0  0  0  0  0  0  0  0  0  0  0  0
   19.4089   -7.4641    9.8513 N   0  0  0  0  0  0  0  0  0  0  0  0
   19.9590   -7.3119    8.6373 C   0  0  0  0  0  0  0  0  0  0  0  0
   21.0915   -6.5038    8.4785 N   0  0  0  0  0  0  0  0  0  0  0  0
   22.3974   -6.9281    7.9679 C   0  0  0  0  0  0  0  0  0  0  0  0
   22.9193   -5.7139    7.2258 C   0  0  0  0  0  0  0  0  0  0  0  0
   22.1407   -4.5271    7.7625 C   0  0  1  0  0  0  0  0  0  0  0  0
   21.4173   -3.9547    6.6814 O   0  0  0  0  0  0  0  0  0  0  0  0
   21.2040   -5.0861    8.8160 C   0  0  0  0  0  0  0  0  0  0  0  0
   19.4045   -7.9566    7.5359 C   0  0  0  0  0  0  0  0  0  0  0  0
   19.9713   -7.8155    6.2086 C   0  0  0  0  0  0  0  0  0  0  0  0
   20.2633   -8.9330    5.4340 C   0  0  0  0  0  0  0  0  0  0  0  0
   20.7847   -8.7809    4.2083 N   0  0  0  0  0  0  0  0  0  0  0  0
   21.0352   -7.5625    3.7063 C   0  0  0  0  0  0  0  0  0  0  0  0
   20.7619   -6.4690    4.4329 N   0  0  0  0  0  0  0  0  0  0  0  0
   20.2391   -6.5650    5.6628 C   0  0  0  0  0  0  0  0  0  0  0  0
   18.2797   -8.7575    7.7030 C   0  0  0  0  0  0  0  0  0  0  0  0
   15.9053  -11.5384   10.0686 H   0  0  0  0  0  0  0  0  0  0  0  0
   15.2739  -10.0026   12.4875 H   0  0  0  0  0  0  0  0  0  0  0  0
   16.2749   -9.7219   14.6479 H   0  0  0  0  0  0  0  0  0  0  0  0
   19.9722  -10.7460   13.0587 H   0  0  0  0  0  0  0  0  0  0  0  0
   18.9629  -11.0259   10.9028 H   0  0  0  0  0  0  0  0  0  0  0  0
   17.9378   -8.3237   10.9551 H   0  0  0  0  0  0  0  0  0  0  0  0
   22.3000   -7.7073    7.3487 H   0  0  0  0  0  0  0  0  0  0  0  0
   23.0092   -7.1741    8.7197 H   0  0  0  0  0  0  0  0  0  0  0  0
   22.7648   -5.8148    6.2430 H   0  0  0  0  0  0  0  0  0  0  0  0
   23.8969   -5.5948    7.3991 H   0  0  0  0  0  0  0  0  0  0  0  0
   22.7606   -3.8540    8.1656 H   0  0  0  0  0  0  0  0  0  0  0  0
   21.9741   -3.9907    5.8516 H   0  0  0  0  0  0  0  0  0  0  0  0
   20.3110   -4.6386    8.7702 H   0  0  0  0  0  0  0  0  0  0  0  0
   21.5891   -4.9688    9.7314 H   0  0  0  0  0  0  0  0  0  0  0  0
   20.0843   -9.8498    5.7912 H   0  0  0  0  0  0  0  0  0  0  0  0
   21.4256   -7.4697    2.7903 H   0  0  0  0  0  0  0  0  0  0  0  0
   20.0414   -5.7374    6.1881 H   0  0  0  0  0  0  0  0  0  0  0  0
   17.8718   -9.2262    6.9195 H   0  0  0  0  0  0  0  0  0  0  0  0
  1  2  2  0  0  0  0
  2  3  1  0  0  0  0
  3  4  1  0  0  0  0
  4  5  2  0  0  0  0
  5  6  1  0  0  0  0
  6  7  2  0  0  0  0
  7  8  1  0  0  0  0
  8  9  1  0  0  0  0
  9 10  1  0  0  0  0
  9 11  1  0  0  0  0
  9 12  1  0  0  0  0
  7 13  1  0  0  0  0
 13 14  2  0  0  0  0
  2 15  1  0  0  0  0
 15 16  2  0  0  0  0
 16 17  1  0  0  0  0
 17 18  2  0  0  0  0
 18 19  1  0  0  0  0
 19 20  1  0  0  0  0
 20 21  1  0  0  0  0
 21 22  1  0  0  0  0
 22 23  1  0  0  0  0
 22 24  1  0  0  0  0
 18 25  1  0  0  0  0
 25 26  1  0  0  0  0
 26 27  2  0  0  0  0
 27 28  1  0  0  0  0
 28 29  2  0  0  0  0
 29 30  1  0  0  0  0
 30 31  2  0  0  0  0
 25 32  2  0  0  0  0
 14  4  1  0  0  0  0
 32 15  1  0  0  0  0
 24 19  1  0  0  0  0
 31 26  1  0  0  0  0
  3 33  1  0  0  0  0
  5 34  1  0  0  0  0
  6 35  1  0  0  0  0
 13 36  1  0  0  0  0
 14 37  1  0  0  0  0
 16 38  1  0  0  0  0
 20 39  1  0  0  0  0
 20 40  1  0  0  0  0
 21 41  1  0  0  0  0
 21 42  1  0  0  0  0
 22 43  1  0  0  0  0
 23 44  1  0  0  0  0
 24 45  1  0  0  0  0
 24 46  1  0  0  0  0
 27 47  1  0  0  0  0
 29 48  1  0  0  0  0
 31 49  1  0  0  0  0
 32 50  1  0  0  0  0
M  END
> <BIOSOLVEIT.HYDE_ESTIMATED_AFFINITY_LOWER_BOUNDARY [nM]>
17697.511534

> <BIOSOLVEIT.HYDE_ESTIMATED_AFFINITY_UPPER_BOUNDARY [nM]>
1758352.406849

> <BIOSOLVEIT.HYDE_LIGAND_EFFICIENCY range: ++, +, 0, -, -->
--

> <BIOSOLVEIT.HYDE_LIGAND_LIPOPHILIC_EFFICIENCY range: ++, +, 0, -, -->
--

> <BIOSOLVEIT.INTER_CLASH range: red, yellow, green>
red

> <BIOSOLVEIT.INTRA_CLASH range: red, yellow, green>
yellow

> <BIOSOLVEIT.LOGP>
3.2605

> <BIOSOLVEIT.MOLECULAR WEIGHT>
445.399

> <BIOSOLVEIT.MOLECULE_CHECKSUM>
LTIxLjQyNTswLjY2OTUz

> <BIOSOLVEIT.TORSION_QUALITY range: red, yellow, green, not rotatable>
yellow

> <BIOSOLVEIT.TPSA>
100.47

$$$$
6HD4_FYW_2
foHydescor03222115303D 1   1.00000     0.00000     0
Hydescorer 1.1.0 fol007
 50 53  0  0  0  0            999 V2000
   24.4248   -9.5482    2.0653 O   0  0  0  0  0  0  0  0  0  0  0  0
   23.2677   -9.1193    2.3218 C   0  0  0  0  0  0  0  0  0  0  0  0
   23.0701   -8.3300    3.5071 N   0  0  0  0  0  0  0  0  0  0  0  0
   21.8788   -8.2887    4.2402 C   0  0  0  0  0  0  0  0  0  0  0  0
   20.8491   -9.1707    3.9281 C   0  0  0  0  0  0  0  0  0  0  0  0
   19.6610   -9.1369    4.6517 C   0  0  0  0  0  0  0  0  0  0  0  0
   19.5203   -8.2143    5.6831 C   0  0  0  0  0  0  0  0  0  0  0  0
   18.3262   -8.1691    6.4206 O   0  0  0  0  0  0  0  0  0  0  0  0
   18.0786   -8.8811    7.6310 C   0  0  0  0  0  0  0  0  0  0  0  0
   18.1935  -10.2433    7.4149 F   0  0  0  0  0  0  0  0  0  0  0  0
   16.7947   -8.6049    8.0589 F   0  0  0  0  0  0  0  0  0  0  0  0
   18.9705   -8.4816    8.6102 F   0  0  0  0  0  0  0  0  0  0  0  0
   20.5447   -7.3278    6.0018 C   0  0  0  0  0  0  0  0  0  0  0  0
   21.7290   -7.3689    5.2734 C   0  0  0  0  0  0  0  0  0  0  0  0
   22.1617   -9.4075    1.3759 C   0  0  0  0  0  0  0  0  0  0  0  0
   21.3754   -8.3928    0.8397 C   0  0  0  0  0  0  0  0  0  0  0  0
   20.3793   -8.6703   -0.0151 N   0  0  0  0  0  0  0  0  0  0  0  0
   20.1035   -9.9303   -0.3839 C   0  0  0  0  0  0  0  0  0  0  0  0
   19.0564  -10.1845   -1.2782 N   0  0  0  0  0  0  0  0  0  0  0  0
   19.2054  -10.3366   -2.7307 C   0  0  0  0  0  0  0  0  0  0  0  0
   17.8016  -10.6059   -3.2344 C   0  0  0  0  0  0  0  0  0  0  0  0
   16.9095   -9.9733   -2.1892 C   0  0  1  0  0  0  0  0  0  0  0  0
   15.6020  -10.5229   -2.2187 O   0  0  0  0  0  0  0  0  0  0  0  0
   17.6501  -10.3372   -0.9153 C   0  0  0  0  0  0  0  0  0  0  0  0
   20.8577  -10.9845    0.1220 C   0  0  0  0  0  0  0  0  0  0  0  0
   20.5889  -12.3592   -0.2535 C   0  0  0  0  0  0  0  0  0  0  0  0
   21.5356  -13.1098   -0.9421 C   0  0  0  0  0  0  0  0  0  0  0  0
   21.2684  -14.3800   -1.2778 N   0  0  0  0  0  0  0  0  0  0  0  0
   20.0957  -14.9498   -0.9625 C   0  0  0  0  0  0  0  0  0  0  0  0
   19.1663  -14.2475   -0.2981 N   0  0  0  0  0  0  0  0  0  0  0  0
   19.3831  -12.9754    0.0623 C   0  0  0  0  0  0  0  0  0  0  0  0
   21.8960  -10.7226    1.0097 C   0  0  0  0  0  0  0  0  0  0  0  0
   23.8355   -7.7730    3.8294 H   0  0  0  0  0  0  0  0  0  0  0  0
   20.9627   -9.8289    3.1840 H   0  0  0  0  0  0  0  0  0  0  0  0
   18.9171   -9.7684    4.4328 H   0  0  0  0  0  0  0  0  0  0  0  0
   20.4307   -6.6692    6.7456 H   0  0  0  0  0  0  0  0  0  0  0  0
   22.4727   -6.7374    5.4924 H   0  0  0  0  0  0  0  0  0  0  0  0
   21.5553   -7.4428    1.0951 H   0  0  0  0  0  0  0  0  0  0  0  0
   19.8102  -11.1036   -2.9449 H   0  0  0  0  0  0  0  0  0  0  0  0
   19.5717   -9.4997   -3.1375 H   0  0  0  0  0  0  0  0  0  0  0  0
   17.6301  -11.5889   -3.3002 H   0  0  0  0  0  0  0  0  0  0  0  0
   17.6574  -10.1818   -4.1285 H   0  0  0  0  0  0  0  0  0  0  0  0
   16.8774   -8.9808   -2.3069 H   0  0  0  0  0  0  0  0  0  0  0  0
   14.9494   -9.8495   -1.8713 H   0  0  0  0  0  0  0  0  0  0  0  0
   17.4519  -11.2791   -0.6441 H   0  0  0  0  0  0  0  0  0  0  0  0
   17.4044   -9.7171   -0.1702 H   0  0  0  0  0  0  0  0  0  0  0  0
   22.4155  -12.7023   -1.1868 H   0  0  0  0  0  0  0  0  0  0  0  0
   19.9145  -15.8982   -1.2228 H   0  0  0  0  0  0  0  0  0  0  0  0
   18.6778  -12.4691    0.5585 H   0  0  0  0  0  0  0  0  0  0  0  0
   22.4452  -11.4716    1.3803 H   0  0  0  0  0  0  0  0  0  0  0  0
  1  2  2  0  0  0  0
  2  3  1  0  0  0  0
  3  4  1  0  0  0  0
  4  5  2  0  0  0  0
  5  6  1  0  0  0  0
  6  7  2  0  0  0  0
  7  8  1  0  0  0  0
  8  9  1  0  0  0  0
  9 10  1  0  0  0  0
  9 11  1  0  0  0  0
  9 12  1  0  0  0  0
  7 13  1  0  0  0  0
 13 14  2  0  0  0  0
  2 15  1  0  0  0  0
 15 16  2  0  0  0  0
 16 17  1  0  0  0  0
 17 18  2  0  0  0  0
 18 19  1  0  0  0  0
 19 20  1  0  0  0  0
 20 21  1  0  0  0  0
 21 22  1  0  0  0  0
 22 23  1  0  0  0  0
 22 24  1  0  0  0  0
 18 25  1  0  0  0  0
 25 26  1  0  0  0  0
 26 27  2  0  0  0  0
 27 28  1  0  0  0  0
 28 29  2  0  0  0  0
 29 30  1  0  0  0  0
 30 31  2  0  0  0  0
 25 32  2  0  0  0  0
 14  4  1  0  0  0  0
 32 15  1  0  0  0  0
 24 19  1  0  0  0  0
 31 26  1  0  0  0  0
  3 33  1  0  0  0  0
  5 34  1  0  0  0  0
  6 35  1  0  0  0  0
 13 36  1  0  0  0  0
 14 37  1  0  0  0  0
 16 38  1  0  0  0  0
 20 39  1  0  0  0  0
 20 40  1  0  0  0  0
 21 41  1  0  0  0  0
 21 42  1  0  0  0  0
 22 43  1  0  0  0  0
 23 44  1  0  0  0  0
 24 45  1  0  0  0  0
 24 46  1  0  0  0  0
 27 47  1  0  0  0  0
 29 48  1  0  0  0  0
 31 49  1  0  0  0  0
 32 50  1  0  0  0  0
M  END
> <BIOSOLVEIT.HYDE_ESTIMATED_AFFINITY_LOWER_BOUNDARY [nM]>
478290963.955724

> <BIOSOLVEIT.HYDE_ESTIMATED_AFFINITY_UPPER_BOUNDARY [nM]>
47521035148.981834

> <BIOSOLVEIT.HYDE_LIGAND_EFFICIENCY range: ++, +, 0, -, -->
--

> <BIOSOLVEIT.HYDE_LIGAND_LIPOPHILIC_EFFICIENCY range: ++, +, 0, -, -->
--

> <BIOSOLVEIT.INTER_CLASH range: red, yellow, green>
green

> <BIOSOLVEIT.INTRA_CLASH range: red, yellow, green>
red

> <BIOSOLVEIT.LOGP>
3.2605

> <BIOSOLVEIT.MOLECULAR WEIGHT>
445.399

> <BIOSOLVEIT.MOLECULE_CHECKSUM>
My44NzE2ODsw

> <BIOSOLVEIT.TORSION_QUALITY range: red, yellow, green, not rotatable>
green

> <BIOSOLVEIT.TPSA>
100.47

$$$$
6HD4_FYW_3
foHydescor03222115303D 1   1.00000     0.00000     0
Hydescorer 1.1.0 fol007
 50 53  0  0  0  0            999 V2000
   24.5738   -6.9107    4.4314 O   0  0  0  0  0  0  0  0  0  0  0  0
   23.3153   -6.9234    4.4999 C   0  0  0  0  0  0  0  0  0  0  0  0
   22.6832   -6.4309    5.6935 N   0  0  0  0  0  0  0  0  0  0  0  0
   21.4559   -6.8892    6.1853 C   0  0  0  0  0  0  0  0  0  0  0  0
   20.9920   -8.1464    5.8109 C   0  0  0  0  0  0  0  0  0  0  0  0
   19.7727   -8.6105    6.2950 C   0  0  0  0  0  0  0  0  0  0  0  0
   19.0310   -7.8039    7.1515 C   0  0  0  0  0  0  0  0  0  0  0  0
   17.7984   -8.2599    7.6465 O   0  0  0  0  0  0  0  0  0  0  0  0
   17.6339   -9.2169    8.6906 C   0  0  0  0  0  0  0  0  0  0  0  0
   18.2258  -10.4165    8.3356 F   0  0  0  0  0  0  0  0  0  0  0  0
   16.2845   -9.4294    8.8952 F   0  0  0  0  0  0  0  0  0  0  0  0
   18.1935   -8.7436    9.8638 F   0  0  0  0  0  0  0  0  0  0  0  0
   19.4867   -6.5448    7.5307 C   0  0  0  0  0  0  0  0  0  0  0  0
   20.7068   -6.0890    7.0424 C   0  0  0  0  0  0  0  0  0  0  0  0
   22.5309   -7.4061    3.3370 C   0  0  0  0  0  0  0  0  0  0  0  0
   21.3476   -6.7876    2.9459 C   0  0  0  0  0  0  0  0  0  0  0  0
   20.6504   -7.2362    1.8912 N   0  0  0  0  0  0  0  0  0  0  0  0
   21.0641   -8.2932    1.1763 C   0  0  0  0  0  0  0  0  0  0  0  0
   20.3120   -8.7352    0.0812 N   0  0  0  0  0  0  0  0  0  0  0  0
   19.2074   -9.6947    0.1429 C   0  0  0  0  0  0  0  0  0  0  0  0
   19.2358  -10.4007   -1.2013 C   0  0  0  0  0  0  0  0  0  0  0  0
   19.9364   -9.4500   -2.1554 C   0  0  1  0  0  0  0  0  0  0  0  0
   19.0139   -8.8853   -3.0748 O   0  0  0  0  0  0  0  0  0  0  0  0
   20.4818   -8.3150   -1.3117 C   0  0  0  0  0  0  0  0  0  0  0  0
   22.2406   -8.9505    1.5231 C   0  0  0  0  0  0  0  0  0  0  0  0
   22.7190  -10.0966    0.7743 C   0  0  0  0  0  0  0  0  0  0  0  0
   23.9229  -10.0441    0.0798 C   0  0  0  0  0  0  0  0  0  0  0  0
   24.3487  -11.1156   -0.6044 N   0  0  0  0  0  0  0  0  0  0  0  0
   23.6324  -12.2493   -0.6361 C   0  0  0  0  0  0  0  0  0  0  0  0
   22.4686  -12.3256    0.0259 N   0  0  0  0  0  0  0  0  0  0  0  0
   21.9982  -11.2846    0.7260 C   0  0  0  0  0  0  0  0  0  0  0  0
   22.9815   -8.5045    2.6124 C   0  0  0  0  0  0  0  0  0  0  0  0
   23.1523   -5.7123    6.2070 H   0  0  0  0  0  0  0  0  0  0  0  0
   21.5348   -8.7164    5.1941 H   0  0  0  0  0  0  0  0  0  0  0  0
   19.4338   -9.5133    6.0302 H   0  0  0  0  0  0  0  0  0  0  0  0
   18.9435   -5.9747    8.1470 H   0  0  0  0  0  0  0  0  0  0  0  0
   21.0455   -5.1862    7.3072 H   0  0  0  0  0  0  0  0  0  0  0  0
   21.0120   -5.9972    3.4584 H   0  0  0  0  0  0  0  0  0  0  0  0
   18.3362   -9.2218    0.2747 H   0  0  0  0  0  0  0  0  0  0  0  0
   19.3482  -10.3474    0.8873 H   0  0  0  0  0  0  0  0  0  0  0  0
   18.3051  -10.5867   -1.5163 H   0  0  0  0  0  0  0  0  0  0  0  0
   19.7423  -11.2602   -1.1322 H   0  0  0  0  0  0  0  0  0  0  0  0
   20.6762   -9.9172   -2.6396 H   0  0  0  0  0  0  0  0  0  0  0  0
   18.3208   -8.3658   -2.5750 H   0  0  0  0  0  0  0  0  0  0  0  0
   19.9697   -7.4740   -1.4865 H   0  0  0  0  0  0  0  0  0  0  0  0
   21.4494   -8.1643   -1.5144 H   0  0  0  0  0  0  0  0  0  0  0  0
   24.4707   -9.2075    0.0908 H   0  0  0  0  0  0  0  0  0  0  0  0
   23.9662  -13.0374   -1.1533 H   0  0  0  0  0  0  0  0  0  0  0  0
   21.1286  -11.3620    1.2138 H   0  0  0  0  0  0  0  0  0  0  0  0
   23.8286   -8.9683    2.8717 H   0  0  0  0  0  0  0  0  0  0  0  0
  1  2  2  0  0  0  0
  2  3  1  0  0  0  0
  3  4  1  0  0  0  0
  4  5  2  0  0  0  0
  5  6  1  0  0  0  0
  6  7  2  0  0  0  0
  7  8  1  0  0  0  0
  8  9  1  0  0  0  0
  9 10  1  0  0  0  0
  9 11  1  0  0  0  0
  9 12  1  0  0  0  0
  7 13  1  0  0  0  0
 13 14  2  0  0  0  0
  2 15  1  0  0  0  0
 15 16  2  0  0  0  0
 16 17  1  0  0  0  0
 17 18  2  0  0  0  0
 18 19  1  0  0  0  0
 19 20  1  0  0  0  0
 20 21  1  0  0  0  0
 21 22  1  0  0  0  0
 22 23  1  0  0  0  0
 22 24  1  0  0  0  0
 18 25  1  0  0  0  0
 25 26  1  0  0  0  0
 26 27  2  0  0  0  0
 27 28  1  0  0  0  0
 28 29  2  0  0  0  0
 29 30  1  0  0  0  0
 30 31  2  0  0  0  0
 25 32  2  0  0  0  0
 14  4  1  0  0  0  0
 32 15  1  0  0  0  0
 24 19  1  0  0  0  0
 31 26  1  0  0  0  0
  3 33  1  0  0  0  0
  5 34  1  0  0  0  0
  6 35  1  0  0  0  0
 13 36  1  0  0  0  0
 14 37  1  0  0  0  0
 16 38  1  0  0  0  0
 20 39  1  0  0  0  0
 20 40  1  0  0  0  0
 21 41  1  0  0  0  0
 21 42  1  0  0  0  0
 22 43  1  0  0  0  0
 23 44  1  0  0  0  0
 24 45  1  0  0  0  0
 24 46  1  0  0  0  0
 27 47  1  0  0  0  0
 29 48  1  0  0  0  0
 31 49  1  0  0  0  0
 32 50  1  0  0  0  0
M  END
> <BIOSOLVEIT.HYDE_ESTIMATED_AFFINITY_LOWER_BOUNDARY [nM]>
2404076308.834158

> <BIOSOLVEIT.HYDE_ESTIMATED_AFFINITY_UPPER_BOUNDARY [nM]>
238859195306.726105

> <BIOSOLVEIT.HYDE_LIGAND_EFFICIENCY range: ++, +, 0, -, -->
--

> <BIOSOLVEIT.HYDE_LIGAND_LIPOPHILIC_EFFICIENCY range: ++, +, 0, -, -->
--

> <BIOSOLVEIT.INTER_CLASH range: red, yellow, green>
green

> <BIOSOLVEIT.INTRA_CLASH range: red, yellow, green>
yellow

> <BIOSOLVEIT.LOGP>
3.2605

> <BIOSOLVEIT.MOLECULAR WEIGHT>
445.399

> <BIOSOLVEIT.MOLECULE_CHECKSUM>
Ny44NzQ0Njsw

> <BIOSOLVEIT.TORSION_QUALITY range: red, yellow, green, not rotatable>
green

> <BIOSOLVEIT.TPSA>
100.47

$$$$
2QOH_P3Y_1
foHydescor03222115303D 1   1.00000     0.00000     0
Hydescorer 1.1.0 fol007
 48 51  0  0  0  0            999 V2000
   19.6466  -12.2103   13.1887 C   0  0  0  0  0  0  0  0  0  0  0  0
   19.0050  -11.0771   12.6121 O   0  0  0  0  0  0  0  0  0  0  0  0
   18.3568  -10.1213   13.3119 C   0  0  0  0  0  0  0  0  0  0  0  0
   18.7930   -9.8272   14.5995 C   0  0  0  0  0  0  0  0  0  0  0  0
   18.1462   -8.8476   15.3463 C   0  0  0  0  0  0  0  0  0  0  0  0
   17.0631   -8.1624   14.8057 C   0  0  0  0  0  0  0  0  0  0  0  0
   16.6267   -8.4560   13.5176 C   0  0  0  0  0  0  0  0  0  0  0  0
   17.2732   -9.4358   12.7709 C   0  0  0  0  0  0  0  0  0  0  0  0
   16.8178   -9.7424   11.4279 C   0  0  0  0  0  0  0  0  0  0  0  0
   15.7021  -10.4655   11.1252 C   0  0  0  0  0  0  0  0  0  0  0  0
   15.6259  -10.5277    9.7653 N   0  0  0  0  0  0  0  0  0  0  0  0
   16.6868   -9.8518    9.2110 C   0  0  0  0  0  0  0  0  0  0  0  0
   17.0876   -9.6075    7.9527 N   0  0  0  0  0  0  0  0  0  0  0  0
   18.1915   -8.8937    7.6794 C   0  0  0  0  0  0  0  0  0  0  0  0
   18.9869   -8.3641    8.6921 C   0  0  0  0  0  0  0  0  0  0  0  0
   20.1843   -7.5861    8.4403 C   0  0  0  0  0  0  0  0  0  0  0  0
   21.2931   -7.6706    9.2760 C   0  0  0  0  0  0  0  0  0  0  0  0
   22.3924   -6.9432    9.0271 N   0  0  0  0  0  0  0  0  0  0  0  0
   22.4603   -6.1169    7.9727 C   0  0  0  0  0  0  0  0  0  0  0  0
   21.3806   -5.9937    7.1048 C   0  0  0  0  0  0  0  0  0  0  0  0
   21.4346   -5.0886    5.9365 C   0  0  0  0  0  0  0  0  0  0  0  0
   21.0139   -3.9058    6.0558 O   0  0  0  0  0  0  0  0  0  0  0  0
   21.9478   -5.5328    4.6667 N   0  0  0  0  0  0  0  0  0  0  0  0
   21.9679   -4.6164    3.5212 C   0  0  0  0  0  0  0  0  0  0  0  0
   22.2966   -6.9446    4.4961 C   0  0  0  0  0  0  0  0  0  0  0  0
   20.2287   -6.7366    7.3401 C   0  0  0  0  0  0  0  0  0  0  0  0
   18.6027   -8.5986   10.0059 C   0  0  0  0  0  0  0  0  0  0  0  0
   17.4514   -9.3433   10.2281 C   0  0  0  0  0  0  0  0  0  0  0  0
   20.0531  -12.7675   12.4646 H   0  0  0  0  0  0  0  0  0  0  0  0
   20.3629  -11.9045   13.8158 H   0  0  0  0  0  0  0  0  0  0  0  0
   18.9742  -12.7545   13.6905 H   0  0  0  0  0  0  0  0  0  0  0  0
   19.5715  -10.3199   14.9884 H   0  0  0  0  0  0  0  0  0  0  0  0
   18.4600   -8.6361   16.2719 H   0  0  0  0  0  0  0  0  0  0  0  0
   16.5981   -7.4588   15.3429 H   0  0  0  0  0  0  0  0  0  0  0  0
   15.8486   -7.9628   13.1287 H   0  0  0  0  0  0  0  0  0  0  0  0
   15.0617  -10.8726   11.7765 H   0  0  0  0  0  0  0  0  0  0  0  0
   14.9073  -10.9942    9.2494 H   0  0  0  0  0  0  0  0  0  0  0  0
   18.4486   -8.7386    6.7255 H   0  0  0  0  0  0  0  0  0  0  0  0
   21.2705   -8.2791   10.0693 H   0  0  0  0  0  0  0  0  0  0  0  0
   23.2921   -5.5863    7.8098 H   0  0  0  0  0  0  0  0  0  0  0  0
   22.3532   -5.0849    2.7262 H   0  0  0  0  0  0  0  0  0  0  0  0
   21.0352   -4.3209    3.3142 H   0  0  0  0  0  0  0  0  0  0  0  0
   22.5289   -3.8187    3.7423 H   0  0  0  0  0  0  0  0  0  0  0  0
   22.6358   -7.0942    3.5673 H   0  0  0  0  0  0  0  0  0  0  0  0
   23.0066   -7.1945    5.1545 H   0  0  0  0  0  0  0  0  0  0  0  0
   21.4857   -7.5093    4.6499 H   0  0  0  0  0  0  0  0  0  0  0  0
   19.4429   -6.6610    6.7264 H   0  0  0  0  0  0  0  0  0  0  0  0
   19.1396   -8.2414   10.7702 H   0  0  0  0  0  0  0  0  0  0  0  0
  1  2  1  0  0  0  0
  2  3  1  0  0  0  0
  3  4  2  0  0  0  0
  4  5  1  0  0  0  0
  5  6  2  0  0  0  0
  6  7  1  0  0  0  0
  7  8  2  0  0  0  0
  8  9  1  0  0  0  0
  9 10  2  0  0  0  0
 10 11  1  0  0  0  0
 11 12  1  0  0  0  0
 12 13  2  0  0  0  0
 13 14  1  0  0  0  0
 14 15  2  0  0  0  0
 15 16  1  0  0  0  0
 16 17  2  0  0  0  0
 17 18  1  0  0  0  0
 18 19  2  0  0  0  0
 19 20  1  0  0  0  0
 20 21  1  0  0  0  0
 21 22  2  0  0  0  0
 21 23  1  0  0  0  0
 23 24  1  0  0  0  0
 23 25  1  0  0  0  0
 20 26  2  0  0  0  0
 15 27  1  0  0  0  0
 27 28  2  0  0  0  0
  8  3  1  0  0  0  0
 28  9  1  0  0  0  0
 28 12  1  0  0  0  0
 26 16  1  0  0  0  0
  1 29  1  0  0  0  0
  1 30  1  0  0  0  0
  1 31  1  0  0  0  0
  4 32  1  0  0  0  0
  5 33  1  0  0  0  0
  6 34  1  0  0  0  0
  7 35  1  0  0  0  0
 10 36  1  0  0  0  0
 11 37  1  0  0  0  0
 14 38  1  0  0  0  0
 17 39  1  0  0  0  0
 19 40  1  0  0  0  0
 24 41  1  0  0  0  0
 24 42  1  0  0  0  0
 24 43  1  0  0  0  0
 25 44  1  0  0  0  0
 25 45  1  0  0  0  0
 25 46  1  0  0  0  0
 26 47  1  0  0  0  0
 27 48  1  0  0  0  0
M  END
> <BIOSOLVEIT.HYDE_ESTIMATED_AFFINITY_LOWER_BOUNDARY [nM]>
2867.951993

> <BIOSOLVEIT.HYDE_ESTIMATED_AFFINITY_UPPER_BOUNDARY [nM]>
284947.987137

> <BIOSOLVEIT.HYDE_LIGAND_EFFICIENCY range: ++, +, 0, -, -->
-

> <BIOSOLVEIT.HYDE_LIGAND_LIPOPHILIC_EFFICIENCY range: ++, +, 0, -, -->
--

> <BIOSOLVEIT.INTER_CLASH range: red, yellow, green>
yellow

> <BIOSOLVEIT.INTRA_CLASH range: red, yellow, green>
green

> <BIOSOLVEIT.LOGP>
4.0023

> <BIOSOLVEIT.MOLECULAR WEIGHT>
372.426

> <BIOSOLVEIT.MOLECULE_CHECKSUM>
LTI1LjkzNjI7MC45MjYyOTQ=

> <BIOSOLVEIT.TORSION_QUALITY range: red, yellow, green, not rotatable>
yellow

> <BIOSOLVEIT.TPSA>
71.11

$$$$
2QOH_P3Y_2
foHydescor03222115303D 1   1.00000     0.00000     0
Hydescorer 1.1.0 fol007
 48 51  0  0  0  0            999 V2000
   19.6465  -12.2100   13.1884 C   0  0  0  0  0  0  0  0  0  0  0  0
   19.0057  -11.0765   12.6118 O   0  0  0  0  0  0  0  0  0  0  0  0
   18.3576  -10.1206   13.3116 C   0  0  0  0  0  0  0  0  0  0  0  0
   18.7943   -9.8261   14.5990 C   0  0  0  0  0  0  0  0  0  0  0  0
   18.1478   -8.8465   15.3459 C   0  0  0  0  0  0  0  0  0  0  0  0
   17.0644   -8.1616   14.8056 C   0  0  0  0  0  0  0  0  0  0  0  0
   16.6273   -8.4553   13.5178 C   0  0  0  0  0  0  0  0  0  0  0  0
   17.2737   -9.4352   12.7711 C   0  0  0  0  0  0  0  0  0  0  0  0
   16.8177   -9.7423   11.4282 C   0  0  0  0  0  0  0  0  0  0  0  0
   15.7022  -10.4660   11.1262 C   0  0  0  0  0  0  0  0  0  0  0  0
   15.6254  -10.5284    9.7664 N   0  0  0  0  0  0  0  0  0  0  0  0
   16.6856   -9.8521    9.2115 C   0  0  0  0  0  0  0  0  0  0  0  0
   17.0857   -9.6076    7.9530 N   0  0  0  0  0  0  0  0  0  0  0  0
   18.1891   -8.8932    7.6790 C   0  0  0  0  0  0  0  0  0  0  0  0
   18.9848   -8.3632    8.6912 C   0  0  0  0  0  0  0  0  0  0  0  0
   20.1816   -7.5845    8.4387 C   0  0  0  0  0  0  0  0  0  0  0  0
   21.2908   -7.6682    9.2739 C   0  0  0  0  0  0  0  0  0  0  0  0
   22.3896   -6.9402    9.0244 N   0  0  0  0  0  0  0  0  0  0  0  0
   22.4567   -6.1141    7.9697 C   0  0  0  0  0  0  0  0  0  0  0  0
   21.3766   -5.9920    7.1021 C   0  0  0  0  0  0  0  0  0  0  0  0
   21.4295   -5.0872    5.9335 C   0  0  0  0  0  0  0  0  0  0  0  0
   21.0133   -3.9030    6.0540 O   0  0  0  0  0  0  0  0  0  0  0  0
   21.9370   -5.5334    4.6621 N   0  0  0  0  0  0  0  0  0  0  0  0
   22.3789   -6.9222    4.4938 C   0  0  0  0  0  0  0  0  0  0  0  0
   22.1522   -4.5503    3.5985 C   0  0  0  0  0  0  0  0  0  0  0  0
   20.2252   -6.7355    7.3381 C   0  0  0  0  0  0  0  0  0  0  0  0
   18.6013   -8.5976   10.0052 C   0  0  0  0  0  0  0  0  0  0  0  0
   17.4506   -9.3429   10.2282 C   0  0  0  0  0  0  0  0  0  0  0  0
   20.0529  -12.7673   12.4643 H   0  0  0  0  0  0  0  0  0  0  0  0
   20.3627  -11.9047   13.8158 H   0  0  0  0  0  0  0  0  0  0  0  0
   18.9737  -12.7541   13.6898 H   0  0  0  0  0  0  0  0  0  0  0  0
   19.5730  -10.3186   14.9877 H   0  0  0  0  0  0  0  0  0  0  0  0
   18.4619   -8.6347   16.2713 H   0  0  0  0  0  0  0  0  0  0  0  0
   16.5995   -7.4579   15.3429 H   0  0  0  0  0  0  0  0  0  0  0  0
   15.8489   -7.9623   13.1291 H   0  0  0  0  0  0  0  0  0  0  0  0
   15.0624  -10.8733   11.7778 H   0  0  0  0  0  0  0  0  0  0  0  0
   14.9068  -10.9952    9.2510 H   0  0  0  0  0  0  0  0  0  0  0  0
   18.4456   -8.7382    6.7250 H   0  0  0  0  0  0  0  0  0  0  0  0
   21.2689   -8.2764   10.0674 H   0  0  0  0  0  0  0  0  0  0  0  0
   23.2881   -5.5831    7.8063 H   0  0  0  0  0  0  0  0  0  0  0  0
   22.6988   -7.0589    3.5563 H   0  0  0  0  0  0  0  0  0  0  0  0
   23.1245   -7.1144    5.1319 H   0  0  0  0  0  0  0  0  0  0  0  0
   21.6145   -7.5399    4.6786 H   0  0  0  0  0  0  0  0  0  0  0  0
   22.5043   -5.0118    2.7843 H   0  0  0  0  0  0  0  0  0  0  0  0
   21.2859   -4.1017    3.3791 H   0  0  0  0  0  0  0  0  0  0  0  0
   22.8134   -3.8659    3.9060 H   0  0  0  0  0  0  0  0  0  0  0  0
   19.4390   -6.6606    6.7246 H   0  0  0  0  0  0  0  0  0  0  0  0
   19.1384   -8.2399   10.7691 H   0  0  0  0  0  0  0  0  0  0  0  0
  1  2  1  0  0  0  0
  2  3  1  0  0  0  0
  3  4  2  0  0  0  0
  4  5  1  0  0  0  0
  5  6  2  0  0  0  0
  6  7  1  0  0  0  0
  7  8  2  0  0  0  0
  8  9  1  0  0  0  0
  9 10  2  0  0  0  0
 10 11  1  0  0  0  0
 11 12  1  0  0  0  0
 12 13  2  0  0  0  0
 13 14  1  0  0  0  0
 14 15  2  0  0  0  0
 15 16  1  0  0  0  0
 16 17  2  0  0  0  0
 17 18  1  0  0  0  0
 18 19  2  0  0  0  0
 19 20  1  0  0  0  0
 20 21  1  0  0  0  0
 21 22  2  0  0  0  0
 21 23  1  0  0  0  0
 23 24  1  0  0  0  0
 23 25  1  0  0  0  0
 20 26  2  0  0  0  0
 15 27  1  0  0  0  0
 27 28  2  0  0  0  0
  8  3  1  0  0  0  0
 28  9  1  0  0  0  0
 28 12  1  0  0  0  0
 26 16  1  0  0  0  0
  1 29  1  0  0  0  0
  1 30  1  0  0  0  0
  1 31  1  0  0  0  0
  4 32  1  0  0  0  0
  5 33  1  0  0  0  0
  6 34  1  0  0  0  0
  7 35  1  0  0  0  0
 10 36  1  0  0  0  0
 11 37  1  0  0  0  0
 14 38  1  0  0  0  0
 17 39  1  0  0  0  0
 19 40  1  0  0  0  0
 24 41  1  0  0  0  0
 24 42  1  0  0  0  0
 24 43  1  0  0  0  0
 25 44  1  0  0  0  0
 25 45  1  0  0  0  0
 25 46  1  0  0  0  0
 26 47  1  0  0  0  0
 27 48  1  0  0  0  0
M  END
> <BIOSOLVEIT.HYDE_ESTIMATED_AFFINITY_LOWER_BOUNDARY [nM]>
3620.735753

> <BIOSOLVEIT.HYDE_ESTIMATED_AFFINITY_UPPER_BOUNDARY [nM]>
359741.504521

> <BIOSOLVEIT.HYDE_LIGAND_EFFICIENCY range: ++, +, 0, -, -->
-

> <BIOSOLVEIT.HYDE_LIGAND_LIPOPHILIC_EFFICIENCY range: ++, +, 0, -, -->
--

> <BIOSOLVEIT.INTER_CLASH range: red, yellow, green>
yellow

> <BIOSOLVEIT.INTRA_CLASH range: red, yellow, green>
green

> <BIOSOLVEIT.LOGP>
4.0023

> <BIOSOLVEIT.MOLECULAR WEIGHT>
372.426

> <BIOSOLVEIT.MOLECULE_CHECKSUM>
LTI1LjM1ODQ7MC45MDU2NTg=

> <BIOSOLVEIT.TORSION_QUALITY range: red, yellow, green, not rotatable>
yellow

> <BIOSOLVEIT.TPSA>
71.11

$$$$
2QOH_P3Y_3
foHydescor03222115303D 1   1.00000     0.00000     0
Hydescorer 1.1.0 fol007
 48 51  0  0  0  0            999 V2000
   16.1419   -8.1198   14.8616 C   0  0  0  0  0  0  0  0  0  0  0  0
   16.6285   -8.7969   13.7071 O   0  0  0  0  0  0  0  0  0  0  0  0
   17.7020   -9.6161   13.6912 C   0  0  0  0  0  0  0  0  0  0  0  0
   18.4250   -9.7895   14.8667 C   0  0  0  0  0  0  0  0  0  0  0  0
   19.5359  -10.6268   14.8830 C   0  0  0  0  0  0  0  0  0  0  0  0
   19.9240  -11.2906   13.7238 C   0  0  0  0  0  0  0  0  0  0  0  0
   19.2008  -11.1179   12.5479 C   0  0  0  0  0  0  0  0  0  0  0  0
   18.0901  -10.2802   12.5315 C   0  0  0  0  0  0  0  0  0  0  0  0
   17.3361  -10.0995   11.3049 C   0  0  0  0  0  0  0  0  0  0  0  0
   16.0893  -10.5992   11.0712 C   0  0  0  0  0  0  0  0  0  0  0  0
   15.7351  -10.2111    9.8131 N   0  0  0  0  0  0  0  0  0  0  0  0
   16.7511   -9.4737    9.2532 C   0  0  0  0  0  0  0  0  0  0  0  0
   16.9241   -8.8653    8.0685 N   0  0  0  0  0  0  0  0  0  0  0  0
   18.0434   -8.1865    7.7696 C   0  0  0  0  0  0  0  0  0  0  0  0
   19.0935   -8.0755    8.6772 C   0  0  0  0  0  0  0  0  0  0  0  0
   20.3169   -7.3502    8.3955 C   0  0  0  0  0  0  0  0  0  0  0  0
   21.4225   -7.4391    9.2350 C   0  0  0  0  0  0  0  0  0  0  0  0
   22.5462   -6.7609    8.9581 N   0  0  0  0  0  0  0  0  0  0  0  0
   22.6423   -5.9806    7.8712 C   0  0  0  0  0  0  0  0  0  0  0  0
   21.5671   -5.8554    6.9979 C   0  0  0  0  0  0  0  0  0  0  0  0
   21.6519   -5.0005    5.7942 C   0  0  0  0  0  0  0  0  0  0  0  0
   21.1046   -3.8645    5.8076 O   0  0  0  0  0  0  0  0  0  0  0  0
   22.3370   -5.4422    4.6075 N   0  0  0  0  0  0  0  0  0  0  0  0
   22.5360   -6.8754    4.3645 C   0  0  0  0  0  0  0  0  0  0  0  0
   22.9652   -4.4461    3.7373 C   0  0  0  0  0  0  0  0  0  0  0  0
   20.3902   -6.5478    7.2619 C   0  0  0  0  0  0  0  0  0  0  0  0
   18.9489   -8.6937    9.9123 C   0  0  0  0  0  0  0  0  0  0  0  0
   17.7691   -9.3816   10.1660 C   0  0  0  0  0  0  0  0  0  0  0  0
   15.3394   -7.5761   14.6157 H   0  0  0  0  0  0  0  0  0  0  0  0
   15.8894   -8.7900   15.5594 H   0  0  0  0  0  0  0  0  0  0  0  0
   16.8553   -7.5178   15.2203 H   0  0  0  0  0  0  0  0  0  0  0  0
   18.1464   -9.3122   15.7001 H   0  0  0  0  0  0  0  0  0  0  0  0
   20.0555  -10.7516   15.7282 H   0  0  0  0  0  0  0  0  0  0  0  0
   20.7230  -11.8919   13.7357 H   0  0  0  0  0  0  0  0  0  0  0  0
   19.4792  -11.5957   11.7147 H   0  0  0  0  0  0  0  0  0  0  0  0
   15.5393  -11.1462   11.7024 H   0  0  0  0  0  0  0  0  0  0  0  0
   14.8678  -10.4297    9.3656 H   0  0  0  0  0  0  0  0  0  0  0  0
   18.1249   -7.7502    6.8734 H   0  0  0  0  0  0  0  0  0  0  0  0
   21.3792   -8.0139   10.0521 H   0  0  0  0  0  0  0  0  0  0  0  0
   23.4919   -5.4860    7.6878 H   0  0  0  0  0  0  0  0  0  0  0  0
   23.0255   -7.0024    3.5018 H   0  0  0  0  0  0  0  0  0  0  0  0
   23.0706   -7.2692    5.1123 H   0  0  0  0  0  0  0  0  0  0  0  0
   21.6474   -7.3314    4.3137 H   0  0  0  0  0  0  0  0  0  0  0  0
   23.3969   -4.9060    2.9614 H   0  0  0  0  0  0  0  0  0  0  0  0
   22.2700   -3.8097    3.4030 H   0  0  0  0  0  0  0  0  0  0  0  0
   23.6578   -3.9420    4.2534 H   0  0  0  0  0  0  0  0  0  0  0  0
   19.6072   -6.4698    6.6449 H   0  0  0  0  0  0  0  0  0  0  0  0
   19.6736   -8.6450   10.5996 H   0  0  0  0  0  0  0  0  0  0  0  0
  1  2  1  0  0  0  0
  2  3  1  0  0  0  0
  3  4  2  0  0  0  0
  4  5  1  0  0  0  0
  5  6  2  0  0  0  0
  6  7  1  0  0  0  0
  7  8  2  0  0  0  0
  8  9  1  0  0  0  0
  9 10  2  0  0  0  0
 10 11  1  0  0  0  0
 11 12  1  0  0  0  0
 12 13  2  0  0  0  0
 13 14  1  0  0  0  0
 14 15  2  0  0  0  0
 15 16  1  0  0  0  0
 16 17  2  0  0  0  0
 17 18  1  0  0  0  0
 18 19  2  0  0  0  0
 19 20  1  0  0  0  0
 20 21  1  0  0  0  0
 21 22  2  0  0  0  0
 21 23  1  0  0  0  0
 23 24  1  0  0  0  0
 23 25  1  0  0  0  0
 20 26  2  0  0  0  0
 15 27  1  0  0  0  0
 27 28  2  0  0  0  0
  8  3  1  0  0  0  0
 28  9  1  0  0  0  0
 28 12  1  0  0  0  0
 26 16  1  0  0  0  0
  1 29  1  0  0  0  0
  1 30  1  0  0  0  0
  1 31  1  0  0  0  0
  4 32  1  0  0  0  0
  5 33  1  0  0  0  0
  6 34  1  0  0  0  0
  7 35  1  0  0  0  0
 10 36  1  0  0  0  0
 11 37  1  0  0  0  0
 14 38  1  0  0  0  0
 17 39  1  0  0  0  0
 19 40  1  0  0  0  0
 24 41  1  0  0  0  0
 24 42  1  0  0  0  0
 24 43  1  0  0  0  0
 25 44  1  0  0  0  0
 25 45  1  0  0  0  0
 25 46  1  0  0  0  0
 26 47  1  0  0  0  0
 27 48  1  0  0  0  0
M  END
> <BIOSOLVEIT.HYDE_ESTIMATED_AFFINITY_LOWER_BOUNDARY [nM]>
4929349445.309015

> <BIOSOLVEIT.HYDE_ESTIMATED_AFFINITY_UPPER_BOUNDARY [nM]>
489760012011.911011

> <BIOSOLVEIT.HYDE_LIGAND_EFFICIENCY range: ++, +, 0, -, -->
--

> <BIOSOLVEIT.HYDE_LIGAND_LIPOPHILIC_EFFICIENCY range: ++, +, 0, -, -->
--

> <BIOSOLVEIT.INTER_CLASH range: red, yellow, green>
red

> <BIOSOLVEIT.INTRA_CLASH range: red, yellow, green>
green

> <BIOSOLVEIT.LOGP>
4.0023

> <BIOSOLVEIT.MOLECULAR WEIGHT>
372.426

> <BIOSOLVEIT.MOLECULE_CHECKSUM>
OS42NTQ0NTsw

> <BIOSOLVEIT.TORSION_QUALITY range: red, yellow, green, not rotatable>
green

> <BIOSOLVEIT.TPSA>
71.11

$$$$
3KF4_B90_1
foHydescor03222115303D 1   1.00000     0.00000     0
Hydescorer 1.1.0 fol007
 54 58  0  0  0  0            999 V2000
   19.1706  -12.4703   13.6627 C   0  0  0  0  0  0  0  0  0  0  0  0
   18.5402  -11.4319   14.5767 C   0  0  0  0  0  0  0  0  0  0  0  0
   18.4922  -11.6760   15.9444 C   0  0  0  0  0  0  0  0  0  0  0  0
   17.9193  -10.7389   16.7987 C   0  0  0  0  0  0  0  0  0  0  0  0
   17.3902   -9.5499   16.3072 C   0  0  0  0  0  0  0  0  0  0  0  0
   16.7873   -8.4839   16.9212 N   0  0  0  0  0  0  0  0  0  0  0  0
   16.4498   -7.5963   16.0103 N   0  0  0  0  0  0  0  0  0  0  0  0
   16.8165   -8.0403   14.8255 C   0  0  0  0  0  0  0  0  0  0  0  0
   17.4357   -9.3140   14.9573 C   0  0  0  0  0  0  0  0  0  0  0  0
   18.0085  -10.2409   14.0888 C   0  0  0  0  0  0  0  0  0  0  0  0
   18.0603   -9.9877   12.6614 C   0  0  0  0  0  0  0  0  0  0  0  0
   16.9822  -10.1139   11.8787 C   0  0  0  0  0  0  0  0  0  0  0  0
   17.0146   -9.8673   10.4629 N   0  0  0  0  0  0  0  0  0  0  0  0
   15.9713  -10.0864    9.6123 C   0  0  0  0  0  0  0  0  0  0  0  0
   16.3646   -9.7520    8.4029 N   0  0  0  0  0  0  0  0  0  0  0  0
   17.6577   -9.3169    8.4705 C   0  0  0  0  0  0  0  0  0  0  0  0
   18.5886   -8.8472    7.5506 C   0  0  0  0  0  0  0  0  0  0  0  0
   18.2432   -8.7459    6.1975 N   0  0  0  0  0  0  0  0  0  0  0  0
   19.1445   -8.2973    5.1715 C   0  0  0  0  0  0  0  0  0  0  0  0
   20.0943   -7.3272    5.4751 C   0  0  0  0  0  0  0  0  0  0  0  0
   20.9737   -6.8838    4.4930 C   0  0  0  0  0  0  0  0  0  0  0  0
   20.8883   -7.4217    3.2129 C   0  0  0  0  0  0  0  0  0  0  0  0
   21.9936   -6.8705    1.9590 P   0  0  0  0  0  0  0  0  0  0  0  0
   21.9129   -5.0620    1.8382 C   0  0  0  0  0  0  0  0  0  0  0  0
   21.5189   -7.6014    0.3674 C   0  0  0  0  0  0  0  0  0  0  0  0
   23.4109   -7.2823    2.2879 O   0  0  0  0  0  0  0  0  0  0  0  0
   19.9399   -8.3917    2.9062 C   0  0  0  0  0  0  0  0  0  0  0  0
   19.0617   -8.8335    3.8905 C   0  0  0  0  0  0  0  0  0  0  0  0
   19.8215   -8.4868    7.9405 N   0  0  0  0  0  0  0  0  0  0  0  0
   20.2023   -8.5649    9.2231 C   0  0  0  0  0  0  0  0  0  0  0  0
   19.3267   -9.0150   10.1329 N   0  0  0  0  0  0  0  0  0  0  0  0
   18.0877   -9.3801    9.7724 C   0  0  0  0  0  0  0  0  0  0  0  0
   19.1287  -12.1506   12.7161 H   0  0  0  0  0  0  0  0  0  0  0  0
   20.1253  -12.6099   13.9254 H   0  0  0  0  0  0  0  0  0  0  0  0
   18.6725  -13.3334   13.7454 H   0  0  0  0  0  0  0  0  0  0  0  0
   18.8696  -12.5250   16.3144 H   0  0  0  0  0  0  0  0  0  0  0  0
   17.8873  -10.9230   17.7811 H   0  0  0  0  0  0  0  0  0  0  0  0
   16.6290   -8.3946   17.9046 H   0  0  0  0  0  0  0  0  0  0  0  0
   16.6800   -7.5544   13.9622 H   0  0  0  0  0  0  0  0  0  0  0  0
   18.9284   -9.7104   12.2496 H   0  0  0  0  0  0  0  0  0  0  0  0
   16.1172  -10.3915   12.2966 H   0  0  0  0  0  0  0  0  0  0  0  0
   15.0695  -10.4381    9.8631 H   0  0  0  0  0  0  0  0  0  0  0  0
   17.3143   -9.0006    5.9289 H   0  0  0  0  0  0  0  0  0  0  0  0
   20.1447   -6.9486    6.3994 H   0  0  0  0  0  0  0  0  0  0  0  0
   21.6591   -6.1870    4.7045 H   0  0  0  0  0  0  0  0  0  0  0  0
   22.5404   -4.7472    1.1260 H   0  0  0  0  0  0  0  0  0  0  0  0
   20.9803   -4.7847    1.6071 H   0  0  0  0  0  0  0  0  0  0  0  0
   22.1735   -4.6574    2.7147 H   0  0  0  0  0  0  0  0  0  0  0  0
   22.1474   -7.2875   -0.3442 H   0  0  0  0  0  0  0  0  0  0  0  0
   21.5604   -8.5984    0.4329 H   0  0  0  0  0  0  0  0  0  0  0  0
   20.5872   -7.3209    0.1365 H   0  0  0  0  0  0  0  0  0  0  0  0
   19.8896   -8.7701    1.9819 H   0  0  0  0  0  0  0  0  0  0  0  0
   18.3765   -9.5306    3.6789 H   0  0  0  0  0  0  0  0  0  0  0  0
   21.1245   -8.2919    9.4970 H   0  0  0  0  0  0  0  0  0  0  0  0
  1  2  1  0  0  0  0
  2  3  2  0  0  0  0
  3  4  1  0  0  0  0
  4  5  2  0  0  0  0
  5  6  1  0  0  0  0
  6  7  1  0  0  0  0
  7  8  2  0  0  0  0
  8  9  1  0  0  0  0
  9 10  2  0  0  0  0
 10 11  1  0  0  0  0
 11 12  2  0  0  0  0
 12 13  1  0  0  0  0
 13 14  1  0  0  0  0
 14 15  2  0  0  0  0
 15 16  1  0  0  0  0
 16 17  2  0  0  0  0
 17 18  1  0  0  0  0
 18 19  1  0  0  0  0
 19 20  2  0  0  0  0
 20 21  1  0  0  0  0
 21 22  2  0  0  0  0
 22 23  1  0  0  0  0
 23 24  1  0  0  0  0
 23 25  1  0  0  0  0
 23 26  2  0  0  0  0
 22 27  1  0  0  0  0
 27 28  2  0  0  0  0
 17 29  1  0  0  0  0
 29 30  2  0  0  0  0
 30 31  1  0  0  0  0
 31 32  2  0  0  0  0
 10  2  1  0  0  0  0
 32 13  1  0  0  0  0
  9  5  1  0  0  0  0
 32 16  1  0  0  0  0
 28 19  1  0  0  0  0
  1 33  1  0  0  0  0
  1 34  1  0  0  0  0
  1 35  1  0  0  0  0
  3 36  1  0  0  0  0
  4 37  1  0  0  0  0
  6 38  1  0  0  0  0
  8 39  1  0  0  0  0
 11 40  1  0  0  0  0
 12 41  1  0  0  0  0
 14 42  1  0  0  0  0
 18 43  1  0  0  0  0
 20 44  1  0  0  0  0
 21 45  1  0  0  0  0
 24 46  1  0  0  0  0
 24 47  1  0  0  0  0
 24 48  1  0  0  0  0
 25 49  1  0  0  0  0
 25 50  1  0  0  0  0
 25 51  1  0  0  0  0
 27 52  1  0  0  0  0
 28 53  1  0  0  0  0
 30 54  1  0  0  0  0
M  END
> <BIOSOLVEIT.HYDE_ESTIMATED_AFFINITY_LOWER_BOUNDARY [nM]>
0.087281

> <BIOSOLVEIT.HYDE_ESTIMATED_AFFINITY_UPPER_BOUNDARY [nM]>
8.671846

> <BIOSOLVEIT.HYDE_LIGAND_EFFICIENCY range: ++, +, 0, -, -->
0

> <BIOSOLVEIT.HYDE_LIGAND_LIPOPHILIC_EFFICIENCY range: ++, +, 0, -, -->
0

> <BIOSOLVEIT.INTER_CLASH range: red, yellow, green>
green

> <BIOSOLVEIT.INTRA_CLASH range: red, yellow, green>
red

> <BIOSOLVEIT.LOGP>
4.63052

> <BIOSOLVEIT.MOLECULAR WEIGHT>
443.449

> <BIOSOLVEIT.MOLECULE_CHECKSUM>
LTUxLjcxNzM7MS42MTYxNw==

> <BIOSOLVEIT.TORSION_QUALITY range: red, yellow, green, not rotatable>
green

> <BIOSOLVEIT.TPSA>
101.38

$$$$
3KF4_B90_2
foHydescor03222115303D 1   1.00000     0.00000     0
Hydescorer 1.1.0 fol007
 54 58  0  0  0  0            999 V2000
   19.1910  -12.4613   13.6590 C   0  0  0  0  0  0  0  0  0  0  0  0
   18.5584  -11.4243   14.5731 C   0  0  0  0  0  0  0  0  0  0  0  0
   18.5144  -11.6668   15.9413 C   0  0  0  0  0  0  0  0  0  0  0  0
   17.9396  -10.7310   16.7956 C   0  0  0  0  0  0  0  0  0  0  0  0
   17.4047   -9.5447   16.3038 C   0  0  0  0  0  0  0  0  0  0  0  0
   16.7989   -8.4804   16.9178 N   0  0  0  0  0  0  0  0  0  0  0  0
   16.4558   -7.5952   16.0064 N   0  0  0  0  0  0  0  0  0  0  0  0
   16.8217   -8.0393   14.8214 C   0  0  0  0  0  0  0  0  0  0  0  0
   17.4463   -9.3103   14.9534 C   0  0  0  0  0  0  0  0  0  0  0  0
   18.0209  -10.2360   14.0849 C   0  0  0  0  0  0  0  0  0  0  0  0
   18.0686   -9.9845   12.6570 C   0  0  0  0  0  0  0  0  0  0  0  0
   16.9886  -10.1129   11.8774 C   0  0  0  0  0  0  0  0  0  0  0  0
   17.0168   -9.8679   10.4612 N   0  0  0  0  0  0  0  0  0  0  0  0
   15.9711  -10.0880    9.6139 C   0  0  0  0  0  0  0  0  0  0  0  0
   16.3609   -9.7550    8.4029 N   0  0  0  0  0  0  0  0  0  0  0  0
   17.6541   -9.3198    8.4663 C   0  0  0  0  0  0  0  0  0  0  0  0
   18.5824   -8.8512    7.5433 C   0  0  0  0  0  0  0  0  0  0  0  0
   18.2331   -8.7514    6.1911 N   0  0  0  0  0  0  0  0  0  0  0  0
   19.1257   -8.2867    5.1646 C   0  0  0  0  0  0  0  0  0  0  0  0
   20.0755   -7.3185    5.4745 C   0  0  0  0  0  0  0  0  0  0  0  0
   20.9467   -6.8597    4.4921 C   0  0  0  0  0  0  0  0  0  0  0  0
   20.8530   -7.3801    3.2055 C   0  0  0  0  0  0  0  0  0  0  0  0
   21.9477   -6.8092    1.9511 P   0  0  0  0  0  0  0  0  0  0  0  0
   21.5134   -7.5903    0.3722 C   0  0  0  0  0  0  0  0  0  0  0  0
   23.6534   -7.2464    2.3892 C   0  0  0  0  0  0  0  0  0  0  0  0
   21.8450   -5.3076    1.8057 O   0  0  0  0  0  0  0  0  0  0  0  0
   19.9045   -8.3482    2.8925 C   0  0  0  0  0  0  0  0  0  0  0  0
   19.0346   -8.8054    3.8770 C   0  0  0  0  0  0  0  0  0  0  0  0
   19.8164   -8.4902    7.9292 N   0  0  0  0  0  0  0  0  0  0  0  0
   20.2009   -8.5669    9.2107 C   0  0  0  0  0  0  0  0  0  0  0  0
   19.3279   -9.0160   10.1236 N   0  0  0  0  0  0  0  0  0  0  0  0
   18.0879   -9.3815    9.7671 C   0  0  0  0  0  0  0  0  0  0  0  0
   19.1457  -12.1430   12.7121 H   0  0  0  0  0  0  0  0  0  0  0  0
   20.1468  -12.5968   13.9198 H   0  0  0  0  0  0  0  0  0  0  0  0
   18.6965  -13.3263   13.7439 H   0  0  0  0  0  0  0  0  0  0  0  0
   18.8959  -12.5138   16.3115 H   0  0  0  0  0  0  0  0  0  0  0  0
   17.9104  -10.9140   17.7783 H   0  0  0  0  0  0  0  0  0  0  0  0
   16.6423   -8.3905   17.9013 H   0  0  0  0  0  0  0  0  0  0  0  0
   16.6814   -7.5551   13.9578 H   0  0  0  0  0  0  0  0  0  0  0  0
   18.9352   -9.7066   12.2426 H   0  0  0  0  0  0  0  0  0  0  0  0
   16.1250  -10.3911   12.2979 H   0  0  0  0  0  0  0  0  0  0  0  0
   15.0700  -10.4394    9.8677 H   0  0  0  0  0  0  0  0  0  0  0  0
   17.3075   -9.0193    5.9234 H   0  0  0  0  0  0  0  0  0  0  0  0
   20.1319   -6.9525    6.4035 H   0  0  0  0  0  0  0  0  0  0  0  0
   21.6319   -6.1641    4.7081 H   0  0  0  0  0  0  0  0  0  0  0  0
   22.1346   -7.2670   -0.3416 H   0  0  0  0  0  0  0  0  0  0  0  0
   21.5930   -8.5834    0.4586 H   0  0  0  0  0  0  0  0  0  0  0  0
   20.5732   -7.3512    0.1295 H   0  0  0  0  0  0  0  0  0  0  0  0
   24.2745   -6.9216    1.6759 H   0  0  0  0  0  0  0  0  0  0  0  0
   23.8939   -6.8188    3.2607 H   0  0  0  0  0  0  0  0  0  0  0  0
   23.7319   -8.2399    2.4725 H   0  0  0  0  0  0  0  0  0  0  0  0
   19.8483   -8.7140    1.9635 H   0  0  0  0  0  0  0  0  0  0  0  0
   18.3495   -9.5012    3.6610 H   0  0  0  0  0  0  0  0  0  0  0  0
   21.1239   -8.2936    9.4816 H   0  0  0  0  0  0  0  0  0  0  0  0
  1  2  1  0  0  0  0
  2  3  2  0  0  0  0
  3  4  1  0  0  0  0
  4  5  2  0  0  0  0
  5  6  1  0  0  0  0
  6  7  1  0  0  0  0
  7  8  2  0  0  0  0
  8  9  1  0  0  0  0
  9 10  2  0  0  0  0
 10 11  1  0  0  0  0
 11 12  2  0  0  0  0
 12 13  1  0  0  0  0
 13 14  1  0  0  0  0
 14 15  2  0  0  0  0
 15 16  1  0  0  0  0
 16 17  2  0  0  0  0
 17 18  1  0  0  0  0
 18 19  1  0  0  0  0
 19 20  2  0  0  0  0
 20 21  1  0  0  0  0
 21 22  2  0  0  0  0
 22 23  1  0  0  0  0
 23 24  1  0  0  0  0
 23 25  1  0  0  0  0
 23 26  2  0  0  0  0
 22 27  1  0  0  0  0
 27 28  2  0  0  0  0
 17 29  1  0  0  0  0
 29 30  2  0  0  0  0
 30 31  1  0  0  0  0
 31 32  2  0  0  0  0
 10  2  1  0  0  0  0
 32 13  1  0  0  0  0
  9  5  1  0  0  0  0
 32 16  1  0  0  0  0
 28 19  1  0  0  0  0
  1 33  1  0  0  0  0
  1 34  1  0  0  0  0
  1 35  1  0  0  0  0
  3 36  1  0  0  0  0
  4 37  1  0  0  0  0
  6 38  1  0  0  0  0
  8 39  1  0  0  0  0
 11 40  1  0  0  0  0
 12 41  1  0  0  0  0
 14 42  1  0  0  0  0
 18 43  1  0  0  0  0
 20 44  1  0  0  0  0
 21 45  1  0  0  0  0
 24 46  1  0  0  0  0
 24 47  1  0  0  0  0
 24 48  1  0  0  0  0
 25 49  1  0  0  0  0
 25 50  1  0  0  0  0
 25 51  1  0  0  0  0
 27 52  1  0  0  0  0
 28 53  1  0  0  0  0
 30 54  1  0  0  0  0
M  END
> <BIOSOLVEIT.HYDE_ESTIMATED_AFFINITY_LOWER_BOUNDARY [nM]>
0.283548

> <BIOSOLVEIT.HYDE_ESTIMATED_AFFINITY_UPPER_BOUNDARY [nM]>
28.172122

> <BIOSOLVEIT.HYDE_LIGAND_EFFICIENCY range: ++, +, 0, -, -->
0

> <BIOSOLVEIT.HYDE_LIGAND_LIPOPHILIC_EFFICIENCY range: ++, +, 0, -, -->
0

> <BIOSOLVEIT.INTER_CLASH range: red, yellow, green>
green

> <BIOSOLVEIT.INTRA_CLASH range: red, yellow, green>
red

> <BIOSOLVEIT.LOGP>
4.63052

> <BIOSOLVEIT.MOLECULAR WEIGHT>
443.449

> <BIOSOLVEIT.MOLECULE_CHECKSUM>
LTQ4Ljc5NjU7MS41MjQ4OQ==

> <BIOSOLVEIT.TORSION_QUALITY range: red, yellow, green, not rotatable>
green

> <BIOSOLVEIT.TPSA>
101.38

$$$$
3KF4_B90_3
foHydescor03222115303D 1   1.00000     0.00000     0
Hydescorer 1.1.0 fol007
 54 58  0  0  0  0            999 V2000
   19.1822  -12.4642   13.6589 C   0  0  0  0  0  0  0  0  0  0  0  0
   18.5502  -11.4272   14.5734 C   0  0  0  0  0  0  0  0  0  0  0  0
   18.5040  -11.6714   15.9412 C   0  0  0  0  0  0  0  0  0  0  0  0
   17.9297  -10.7355   16.7959 C   0  0  0  0  0  0  0  0  0  0  0  0
   17.3977   -9.5477   16.3049 C   0  0  0  0  0  0  0  0  0  0  0  0
   16.7930   -8.4830   16.9193 N   0  0  0  0  0  0  0  0  0  0  0  0
   16.4528   -7.5961   16.0087 N   0  0  0  0  0  0  0  0  0  0  0  0
   16.8195   -8.0394   14.8235 C   0  0  0  0  0  0  0  0  0  0  0  0
   17.4416   -9.3117   14.9549 C   0  0  0  0  0  0  0  0  0  0  0  0
   18.0156  -10.2374   14.0860 C   0  0  0  0  0  0  0  0  0  0  0  0
   18.0657   -9.9841   12.6584 C   0  0  0  0  0  0  0  0  0  0  0  0
   16.9883  -10.1168   11.8760 C   0  0  0  0  0  0  0  0  0  0  0  0
   17.0189   -9.8703   10.4601 N   0  0  0  0  0  0  0  0  0  0  0  0
   15.9749  -10.0901    9.6106 C   0  0  0  0  0  0  0  0  0  0  0  0
   16.3666   -9.7555    8.4008 N   0  0  0  0  0  0  0  0  0  0  0  0
   17.6595   -9.3195    8.4670 C   0  0  0  0  0  0  0  0  0  0  0  0
   18.5891   -8.8493    7.5461 C   0  0  0  0  0  0  0  0  0  0  0  0
   18.2422   -8.7482    6.1934 N   0  0  0  0  0  0  0  0  0  0  0  0
   19.1299   -8.2629    5.1722 C   0  0  0  0  0  0  0  0  0  0  0  0
   20.0624   -7.2806    5.4903 C   0  0  0  0  0  0  0  0  0  0  0  0
   20.9285   -6.8018    4.5130 C   0  0  0  0  0  0  0  0  0  0  0  0
   20.8472   -7.3165    3.2232 C   0  0  0  0  0  0  0  0  0  0  0  0
   21.9357   -6.7203    1.9753 P   0  0  0  0  0  0  0  0  0  0  0  0
   23.5040   -7.6287    2.0605 C   0  0  0  0  0  0  0  0  0  0  0  0
   22.2496   -4.9525    2.2378 C   0  0  0  0  0  0  0  0  0  0  0  0
   21.3244   -6.9148    0.6060 O   0  0  0  0  0  0  0  0  0  0  0  0
   19.9161   -8.2985    2.9020 C   0  0  0  0  0  0  0  0  0  0  0  0
   19.0511   -8.7758    3.8815 C   0  0  0  0  0  0  0  0  0  0  0  0
   19.8222   -8.4881    7.9346 N   0  0  0  0  0  0  0  0  0  0  0  0
   20.2045   -8.5659    9.2168 C   0  0  0  0  0  0  0  0  0  0  0  0
   19.3302   -9.0165   10.1276 N   0  0  0  0  0  0  0  0  0  0  0  0
   18.0910   -9.3824    9.7684 C   0  0  0  0  0  0  0  0  0  0  0  0
   19.1387  -12.1446   12.7123 H   0  0  0  0  0  0  0  0  0  0  0  0
   20.1374  -12.6018   13.9207 H   0  0  0  0  0  0  0  0  0  0  0  0
   18.6860  -13.3285   13.7420 H   0  0  0  0  0  0  0  0  0  0  0  0
   18.8834  -12.5195   16.3108 H   0  0  0  0  0  0  0  0  0  0  0  0
   17.8989  -10.9197   17.7783 H   0  0  0  0  0  0  0  0  0  0  0  0
   16.6353   -8.3940   17.9028 H   0  0  0  0  0  0  0  0  0  0  0  0
   16.6812   -7.5538   13.9604 H   0  0  0  0  0  0  0  0  0  0  0  0
   18.9321   -9.7016   12.2465 H   0  0  0  0  0  0  0  0  0  0  0  0
   16.1250  -10.3996   12.2940 H   0  0  0  0  0  0  0  0  0  0  0  0
   15.0735  -10.4423    9.8625 H   0  0  0  0  0  0  0  0  0  0  0  0
   17.3222   -9.0304    5.9215 H   0  0  0  0  0  0  0  0  0  0  0  0
   20.1100   -6.9190    6.4214 H   0  0  0  0  0  0  0  0  0  0  0  0
   21.6014   -6.0961    4.7349 H   0  0  0  0  0  0  0  0  0  0  0  0
   24.1237   -7.2910    1.3520 H   0  0  0  0  0  0  0  0  0  0  0  0
   23.9198   -7.4922    2.9596 H   0  0  0  0  0  0  0  0  0  0  0  0
   23.3328   -8.6034    1.9168 H   0  0  0  0  0  0  0  0  0  0  0  0
   22.8681   -4.6148    1.5283 H   0  0  0  0  0  0  0  0  0  0  0  0
   21.3859   -4.4504    2.1936 H   0  0  0  0  0  0  0  0  0  0  0  0
   22.6678   -4.8181    3.1362 H   0  0  0  0  0  0  0  0  0  0  0  0
   19.8686   -8.6600    1.9709 H   0  0  0  0  0  0  0  0  0  0  0  0
   18.3784   -9.4818    3.6596 H   0  0  0  0  0  0  0  0  0  0  0  0
   21.1268   -8.2923    9.4897 H   0  0  0  0  0  0  0  0  0  0  0  0
  1  2  1  0  0  0  0
  2  3  2  0  0  0  0
  3  4  1  0  0  0  0
  4  5  2  0  0  0  0
  5  6  1  0  0  0  0
  6  7  1  0  0  0  0
  7  8  2  0  0  0  0
  8  9  1  0  0  0  0
  9 10  2  0  0  0  0
 10 11  1  0  0  0  0
 11 12  2  0  0  0  0
 12 13  1  0  0  0  0
 13 14  1  0  0  0  0
 14 15  2  0  0  0  0
 15 16  1  0  0  0  0
 16 17  2  0  0  0  0
 17 18  1  0  0  0  0
 18 19  1  0  0  0  0
 19 20  2  0  0  0  0
 20 21  1  0  0  0  0
 21 22  2  0  0  0  0
 22 23  1  0  0  0  0
 23 24  1  0  0  0  0
 23 25  1  0  0  0  0
 23 26  2  0  0  0  0
 22 27  1  0  0  0  0
 27 28  2  0  0  0  0
 17 29  1  0  0  0  0
 29 30  2  0  0  0  0
 30 31  1  0  0  0  0
 31 32  2  0  0  0  0
 10  2  1  0  0  0  0
 32 13  1  0  0  0  0
  9  5  1  0  0  0  0
 32 16  1  0  0  0  0
 28 19  1  0  0  0  0
  1 33  1  0  0  0  0
  1 34  1  0  0  0  0
  1 35  1  0  0  0  0
  3 36  1  0  0  0  0
  4 37  1  0  0  0  0
  6 38  1  0  0  0  0
  8 39  1  0  0  0  0
 11 40  1  0  0  0  0
 12 41  1  0  0  0  0
 14 42  1  0  0  0  0
 18 43  1  0  0  0  0
 20 44  1  0  0  0  0
 21 45  1  0  0  0  0
 24 46  1  0  0  0  0
 24 47  1  0  0  0  0
 24 48  1  0  0  0  0
 25 49  1  0  0  0  0
 25 50  1  0  0  0  0
 25 51  1  0  0  0  0
 27 52  1  0  0  0  0
 28 53  1  0  0  0  0
 30 54  1  0  0  0  0
M  END
> <BIOSOLVEIT.HYDE_ESTIMATED_AFFINITY_LOWER_BOUNDARY [nM]>
0.251996

> <BIOSOLVEIT.HYDE_ESTIMATED_AFFINITY_UPPER_BOUNDARY [nM]>
25.037260

> <BIOSOLVEIT.HYDE_LIGAND_EFFICIENCY range: ++, +, 0, -, -->
0

> <BIOSOLVEIT.HYDE_LIGAND_LIPOPHILIC_EFFICIENCY range: ++, +, 0, -, -->
0

> <BIOSOLVEIT.INTER_CLASH range: red, yellow, green>
green

> <BIOSOLVEIT.INTRA_CLASH range: red, yellow, green>
red

> <BIOSOLVEIT.LOGP>
4.63052

> <BIOSOLVEIT.MOLECULAR WEIGHT>
443.449

> <BIOSOLVEIT.MOLECULE_CHECKSUM>
LTQ5LjA4ODk7MS41MzQwMw==

> <BIOSOLVEIT.TORSION_QUALITY range: red, yellow, green, not rotatable>
green

> <BIOSOLVEIT.TPSA>
101.38

$$$$
3MS9_MS9_1
foHydescor03222115303D 1   1.00000     0.00000     0
Hydescorer 1.1.0 fol007
 20 20  0  0  0  0            999 V2000
   15.9146   -8.7010   17.0691 C   0  0  0  0  0  0  0  0  0  0  0  0
   15.7192   -7.4748   17.7630 O   0  0  0  0  0  0  0  0  0  0  0  0
   14.6154   -7.2427   18.5899 C   0  0  0  0  0  0  0  0  0  0  0  0
   13.4830   -7.0113   18.0827 O   0  0  0  0  0  0  0  0  0  0  0  0
   14.7543   -7.3245   20.0311 C   0  0  0  0  0  0  0  0  0  0  0  0
   13.6032   -7.4275   20.8061 C   0  0  0  0  0  0  0  0  0  0  0  0
   13.7022   -7.5082   22.1914 C   0  0  0  0  0  0  0  0  0  0  0  0
   14.9577   -7.4846   22.7903 C   0  0  0  0  0  0  0  0  0  0  0  0
   15.0902   -7.5872   24.5626 Cl  0  0  0  0  0  0  0  0  0  0  0  0
   16.1126   -7.3817   22.0215 C   0  0  0  0  0  0  0  0  0  0  0  0
   16.0073   -7.3016   20.6365 C   0  0  0  0  0  0  0  0  0  0  0  0
   17.1805   -7.1987   19.8789 N   0  0  0  0  0  0  0  0  0  0  0  0
   16.7613   -8.6529   16.5393 H   0  0  0  0  0  0  0  0  0  0  0  0
   15.9757   -9.4507   17.7279 H   0  0  0  0  0  0  0  0  0  0  0  0
   15.1440   -8.8613   16.4522 H   0  0  0  0  0  0  0  0  0  0  0  0
   12.7048   -7.4435   20.3672 H   0  0  0  0  0  0  0  0  0  0  0  0
   12.8776   -7.5826   22.7522 H   0  0  0  0  0  0  0  0  0  0  0  0
   17.0108   -7.3654   22.4607 H   0  0  0  0  0  0  0  0  0  0  0  0
   17.1271   -7.0222   18.8960 H   0  0  0  0  0  0  0  0  0  0  0  0
   18.0716   -7.3017   20.3207 H   0  0  0  0  0  0  0  0  0  0  0  0
  1  2  1  0  0  0  0
  2  3  1  0  0  0  0
  3  4  2  0  0  0  0
  3  5  1  0  0  0  0
  5  6  2  0  0  0  0
  6  7  1  0  0  0  0
  7  8  2  0  0  0  0
  8  9  1  0  0  0  0
  8 10  1  0  0  0  0
 10 11  2  0  0  0  0
 11 12  1  0  0  0  0
 11  5  1  0  0  0  0
  1 13  1  0  0  0  0
  1 14  1  0  0  0  0
  1 15  1  0  0  0  0
  6 16  1  0  0  0  0
  7 17  1  0  0  0  0
 10 18  1  0  0  0  0
 12 19  1  0  0  0  0
 12 20  1  0  0  0  0
M  END
> <BIOSOLVEIT.HYDE_ESTIMATED_AFFINITY_LOWER_BOUNDARY [nM]>
44396.684473

> <BIOSOLVEIT.HYDE_ESTIMATED_AFFINITY_UPPER_BOUNDARY [nM]>
4411073.096354

> <BIOSOLVEIT.HYDE_LIGAND_EFFICIENCY range: ++, +, 0, -, -->
0

> <BIOSOLVEIT.HYDE_LIGAND_LIPOPHILIC_EFFICIENCY range: ++, +, 0, -, -->
--

> <BIOSOLVEIT.INTER_CLASH range: red, yellow, green>
green

> <BIOSOLVEIT.INTRA_CLASH range: red, yellow, green>
green

> <BIOSOLVEIT.LOGP>
1.7088

> <BIOSOLVEIT.MOLECULAR WEIGHT>
185.609

> <BIOSOLVEIT.MOLECULE_CHECKSUM>
LTE5LjE0NTsxLjU5NTQx

> <BIOSOLVEIT.TORSION_QUALITY range: red, yellow, green, not rotatable>
yellow

> <BIOSOLVEIT.TPSA>
52.32

$$$$
3MS9_MS9_2
foHydescor03222115303D 1   1.00000     0.00000     0
Hydescorer 1.1.0 fol007
 20 20  0  0  0  0            999 V2000
   16.4205   -8.6436   16.5402 C   0  0  0  0  0  0  0  0  0  0  0  0
   15.5230   -7.6977   17.1086 O   0  0  0  0  0  0  0  0  0  0  0  0
   15.0805   -7.7778   18.4330 C   0  0  0  0  0  0  0  0  0  0  0  0
   15.5652   -8.6462   19.2100 O   0  0  0  0  0  0  0  0  0  0  0  0
   14.1071   -6.8273   18.9348 C   0  0  0  0  0  0  0  0  0  0  0  0
   14.4347   -6.0662   20.0526 C   0  0  0  0  0  0  0  0  0  0  0  0
   13.5230   -5.1452   20.5588 C   0  0  0  0  0  0  0  0  0  0  0  0
   12.2868   -4.9946   19.9387 C   0  0  0  0  0  0  0  0  0  0  0  0
   11.1162   -3.8178   20.5824 Cl  0  0  0  0  0  0  0  0  0  0  0  0
   11.9527   -5.7524   18.8209 C   0  0  0  0  0  0  0  0  0  0  0  0
   12.8685   -6.6716   18.3191 C   0  0  0  0  0  0  0  0  0  0  0  0
   12.5150   -7.4254   17.1932 N   0  0  0  0  0  0  0  0  0  0  0  0
   16.6036   -8.3989   15.5880 H   0  0  0  0  0  0  0  0  0  0  0  0
   17.2775   -8.6414   17.0556 H   0  0  0  0  0  0  0  0  0  0  0  0
   16.0115   -9.5553   16.5775 H   0  0  0  0  0  0  0  0  0  0  0  0
   15.3255   -6.1812   20.4922 H   0  0  0  0  0  0  0  0  0  0  0  0
   13.7545   -4.5959   21.3617 H   0  0  0  0  0  0  0  0  0  0  0  0
   11.0617   -5.6374   18.3818 H   0  0  0  0  0  0  0  0  0  0  0  0
   12.6050   -8.4212   17.2097 H   0  0  0  0  0  0  0  0  0  0  0  0
   12.1724   -6.9678   16.3726 H   0  0  0  0  0  0  0  0  0  0  0  0
  1  2  1  0  0  0  0
  2  3  1  0  0  0  0
  3  4  2  0  0  0  0
  3  5  1  0  0  0  0
  5  6  2  0  0  0  0
  6  7  1  0  0  0  0
  7  8  2  0  0  0  0
  8  9  1  0  0  0  0
  8 10  1  0  0  0  0
 10 11  2  0  0  0  0
 11 12  1  0  0  0  0
 11  5  1  0  0  0  0
  1 13  1  0  0  0  0
  1 14  1  0  0  0  0
  1 15  1  0  0  0  0
  6 16  1  0  0  0  0
  7 17  1  0  0  0  0
 10 18  1  0  0  0  0
 12 19  1  0  0  0  0
 12 20  1  0  0  0  0
M  END
> <BIOSOLVEIT.HYDE_ESTIMATED_AFFINITY_LOWER_BOUNDARY [nM]>
66661.848235

> <BIOSOLVEIT.HYDE_ESTIMATED_AFFINITY_UPPER_BOUNDARY [nM]>
6623248.758175

> <BIOSOLVEIT.HYDE_LIGAND_EFFICIENCY range: ++, +, 0, -, -->
0

> <BIOSOLVEIT.HYDE_LIGAND_LIPOPHILIC_EFFICIENCY range: ++, +, 0, -, -->
--

> <BIOSOLVEIT.INTER_CLASH range: red, yellow, green>
red

> <BIOSOLVEIT.INTRA_CLASH range: red, yellow, green>
green

> <BIOSOLVEIT.LOGP>
1.7088

> <BIOSOLVEIT.MOLECULAR WEIGHT>
185.609

> <BIOSOLVEIT.MOLECULE_CHECKSUM>
LTE4LjEzNzM7MS41MTE0NQ==

> <BIOSOLVEIT.TORSION_QUALITY range: red, yellow, green, not rotatable>
green

> <BIOSOLVEIT.TPSA>
52.32

$$$$
3MS9_MS9_3
foHydescor03222115303D 1   1.00000     0.00000     0
Hydescorer 1.1.0 fol007
 20 20  0  0  0  0            999 V2000
   16.2981   -7.2234   24.4868 C   0  0  0  0  0  0  0  0  0  0  0  0
   15.4244   -7.1984   23.3646 O   0  0  0  0  0  0  0  0  0  0  0  0
   15.8871   -7.0825   22.0498 C   0  0  0  0  0  0  0  0  0  0  0  0
   17.1259   -7.0100   21.8197 O   0  0  0  0  0  0  0  0  0  0  0  0
   14.9504   -7.1042   20.9429 C   0  0  0  0  0  0  0  0  0  0  0  0
   13.6082   -6.8434   21.2014 C   0  0  0  0  0  0  0  0  0  0  0  0
   12.6842   -6.8561   20.1615 C   0  0  0  0  0  0  0  0  0  0  0  0
   13.1143   -7.1314   18.8673 C   0  0  0  0  0  0  0  0  0  0  0  0
   11.9362   -7.1494   17.5327 Cl  0  0  0  0  0  0  0  0  0  0  0  0
   14.4547   -7.3932   18.6019 C   0  0  0  0  0  0  0  0  0  0  0  0
   15.3742   -7.3787   19.6460 C   0  0  0  0  0  0  0  0  0  0  0  0
   16.7189   -7.6442   19.3598 N   0  0  0  0  0  0  0  0  0  0  0  0
   15.7608   -7.3115   25.3256 H   0  0  0  0  0  0  0  0  0  0  0  0
   16.9213   -8.0014   24.4069 H   0  0  0  0  0  0  0  0  0  0  0  0
   16.8263   -6.3749   24.5169 H   0  0  0  0  0  0  0  0  0  0  0  0
   13.3078   -6.6469   22.1348 H   0  0  0  0  0  0  0  0  0  0  0  0
   11.7187   -6.6689   20.3427 H   0  0  0  0  0  0  0  0  0  0  0  0
   14.7547   -7.5900   17.6685 H   0  0  0  0  0  0  0  0  0  0  0  0
   17.4231   -7.4506   20.0429 H   0  0  0  0  0  0  0  0  0  0  0  0
   16.9750   -8.0274   18.4724 H   0  0  0  0  0  0  0  0  0  0  0  0
  1  2  1  0  0  0  0
  2  3  1  0  0  0  0
  3  4  2  0  0  0  0
  3  5  1  0  0  0  0
  5  6  2  0  0  0  0
  6  7  1  0  0  0  0
  7  8  2  0  0  0  0
  8  9  1  0  0  0  0
  8 10  1  0  0  0  0
 10 11  2  0  0  0  0
 11 12  1  0  0  0  0
 11  5  1  0  0  0  0
  1 13  1  0  0  0  0
  1 14  1  0  0  0  0
  1 15  1  0  0  0  0
  6 16  1  0  0  0  0
  7 17  1  0  0  0  0
 10 18  1  0  0  0  0
 12 19  1  0  0  0  0
 12 20  1  0  0  0  0
M  END
> <BIOSOLVEIT.HYDE_ESTIMATED_AFFINITY_LOWER_BOUNDARY [nM]>
89120.954974

> <BIOSOLVEIT.HYDE_ESTIMATED_AFFINITY_UPPER_BOUNDARY [nM]>
8854693.801490

> <BIOSOLVEIT.HYDE_LIGAND_EFFICIENCY range: ++, +, 0, -, -->
0

> <BIOSOLVEIT.HYDE_LIGAND_LIPOPHILIC_EFFICIENCY range: ++, +, 0, -, -->
--

> <BIOSOLVEIT.INTER_CLASH range: red, yellow, green>
green

> <BIOSOLVEIT.INTRA_CLASH range: red, yellow, green>
green

> <BIOSOLVEIT.LOGP>
1.7088

> <BIOSOLVEIT.MOLECULAR WEIGHT>
185.609

> <BIOSOLVEIT.MOLECULE_CHECKSUM>
LTE3LjQxNzY7MS40NTE0Ng==

> <BIOSOLVEIT.TORSION_QUALITY range: red, yellow, green, not rotatable>
green

> <BIOSOLVEIT.TPSA>
52.32

$$$$
3K5V_STJ_1
foHydescor03222115303D 1   1.00000     0.00000     0
Hydescorer 1.1.0 fol007
 40 42  0  0  0  0            999 V2000
   23.0930   -4.5249    5.5643 N   0  0  0  0  0  0  0  0  0  0  0  0
   21.8290   -4.6473    6.2220 C   0  0  0  0  0  0  0  0  0  0  0  0
   20.8965   -3.8629    5.8977 O   0  0  0  0  0  0  0  0  0  0  0  0
   21.6005   -5.6608    7.2814 C   0  0  0  0  0  0  0  0  0  0  0  0
   22.4566   -5.7227    8.3761 C   0  0  0  0  0  0  0  0  0  0  0  0
   22.2267   -6.6795    9.3596 C   0  0  0  0  0  0  0  0  0  0  0  0
   21.1600   -7.5666    9.2601 C   0  0  0  0  0  0  0  0  0  0  0  0
   20.3162   -7.4866    8.1567 C   0  0  0  0  0  0  0  0  0  0  0  0
   19.2004   -8.4064    8.0427 C   0  0  0  0  0  0  0  0  0  0  0  0
   18.4249   -8.6723    9.1664 C   0  0  0  0  0  0  0  0  0  0  0  0
   17.3573   -9.5561    9.0462 C   0  0  0  0  0  0  0  0  0  0  0  0
   16.5702   -9.8319   10.1716 N   0  0  0  0  0  0  0  0  0  0  0  0
   17.0879   -9.9407   11.5086 C   0  0  0  0  0  0  0  0  0  0  0  0
   16.2933   -9.5617   12.5860 C   0  0  0  0  0  0  0  0  0  0  0  0
   16.7859   -9.6637   13.8834 C   0  0  0  0  0  0  0  0  0  0  0  0
   18.0750  -10.1459   14.0842 C   0  0  0  0  0  0  0  0  0  0  0  0
   18.5647  -10.2488   15.3375 O   0  0  0  0  0  0  0  0  0  0  0  0
   18.2531  -11.2900   16.2606 C   0  0  0  0  0  0  0  0  0  0  0  0
   18.6262  -12.5163   15.7401 F   0  0  0  0  0  0  0  0  0  0  0  0
   16.8986  -11.2889   16.5416 F   0  0  0  0  0  0  0  0  0  0  0  0
   18.9510  -11.0731   17.4330 F   0  0  0  0  0  0  0  0  0  0  0  0
   18.8771  -10.5266   13.0126 C   0  0  0  0  0  0  0  0  0  0  0  0
   18.3764  -10.4216   11.7190 C   0  0  0  0  0  0  0  0  0  0  0  0
   17.1084  -10.1225    7.8555 N   0  0  0  0  0  0  0  0  0  0  0  0
   17.8652   -9.8561    6.7803 C   0  0  0  0  0  0  0  0  0  0  0  0
   18.8981   -9.0061    6.8814 N   0  0  0  0  0  0  0  0  0  0  0  0
   20.5275   -6.5377    7.1615 C   0  0  0  0  0  0  0  0  0  0  0  0
   23.6328   -5.3421    5.3624 H   0  0  0  0  0  0  0  0  0  0  0  0
   23.4370   -3.6221    5.3064 H   0  0  0  0  0  0  0  0  0  0  0  0
   23.2259   -5.0887    8.4550 H   0  0  0  0  0  0  0  0  0  0  0  0
   22.8375   -6.7302   10.1499 H   0  0  0  0  0  0  0  0  0  0  0  0
   21.0019   -8.2519    9.9711 H   0  0  0  0  0  0  0  0  0  0  0  0
   18.6307   -8.2370   10.0428 H   0  0  0  0  0  0  0  0  0  0  0  0
   15.5877   -9.9611   10.0368 H   0  0  0  0  0  0  0  0  0  0  0  0
   15.3682   -9.2161   12.4280 H   0  0  0  0  0  0  0  0  0  0  0  0
   16.2198   -9.3936   14.6622 H   0  0  0  0  0  0  0  0  0  0  0  0
   19.8024  -10.8714   13.1705 H   0  0  0  0  0  0  0  0  0  0  0  0
   18.9426  -10.6918   10.9403 H   0  0  0  0  0  0  0  0  0  0  0  0
   17.6593  -10.2910    5.9037 H   0  0  0  0  0  0  0  0  0  0  0  0
   19.9167   -6.4867    6.3713 H   0  0  0  0  0  0  0  0  0  0  0  0
  1  2  1  0  0  0  0
  2  3  2  0  0  0  0
  2  4  1  0  0  0  0
  4  5  2  0  0  0  0
  5  6  1  0  0  0  0
  6  7  2  0  0  0  0
  7  8  1  0  0  0  0
  8  9  1  0  0  0  0
  9 10  2  0  0  0  0
 10 11  1  0  0  0  0
 11 12  1  0  0  0  0
 12 13  1  0  0  0  0
 13 14  2  0  0  0  0
 14 15  1  0  0  0  0
 15 16  2  0  0  0  0
 16 17  1  0  0  0  0
 17 18  1  0  0  0  0
 18 19  1  0  0  0  0
 18 20  1  0  0  0  0
 18 21  1  0  0  0  0
 16 22  1  0  0  0  0
 22 23  2  0  0  0  0
 11 24  2  0  0  0  0
 24 25  1  0  0  0  0
 25 26  2  0  0  0  0
  8 27  2  0  0  0  0
 27  4  1  0  0  0  0
 26  9  1  0  0  0  0
 23 13  1  0  0  0  0
  1 28  1  0  0  0  0
  1 29  1  0  0  0  0
  5 30  1  0  0  0  0
  6 31  1  0  0  0  0
  7 32  1  0  0  0  0
 10 33  1  0  0  0  0
 12 34  1  0  0  0  0
 14 35  1  0  0  0  0
 15 36  1  0  0  0  0
 22 37  1  0  0  0  0
 23 38  1  0  0  0  0
 25 39  1  0  0  0  0
 27 40  1  0  0  0  0
M  END
> <BIOSOLVEIT.HYDE_ESTIMATED_AFFINITY_LOWER_BOUNDARY [nM]>
10.080059

> <BIOSOLVEIT.HYDE_ESTIMATED_AFFINITY_UPPER_BOUNDARY [nM]>
1001.513410

> <BIOSOLVEIT.HYDE_LIGAND_EFFICIENCY range: ++, +, 0, -, -->
0

> <BIOSOLVEIT.HYDE_LIGAND_LIPOPHILIC_EFFICIENCY range: ++, +, 0, -, -->
-

> <BIOSOLVEIT.INTER_CLASH range: red, yellow, green>
green

> <BIOSOLVEIT.INTRA_CLASH range: red, yellow, green>
green

> <BIOSOLVEIT.LOGP>
3.8847

> <BIOSOLVEIT.MOLECULAR WEIGHT>
374.321

> <BIOSOLVEIT.MOLECULE_CHECKSUM>
LTM5Ljk0NDM7MS40Nzk0Mg==

> <BIOSOLVEIT.TORSION_QUALITY range: red, yellow, green, not rotatable>
yellow

> <BIOSOLVEIT.TPSA>
90.13

$$$$
3K5V_STJ_2
foHydescor03222115303D 1   1.00000     0.00000     0
Hydescorer 1.1.0 fol007
 40 42  0  0  0  0            999 V2000
   23.1662   -4.3084    6.3813 N   0  0  0  0  0  0  0  0  0  0  0  0
   21.8453   -4.6889    6.7759 C   0  0  0  0  0  0  0  0  0  0  0  0
   20.8651   -4.0323    6.3306 O   0  0  0  0  0  0  0  0  0  0  0  0
   21.6091   -5.8220    7.7042 C   0  0  0  0  0  0  0  0  0  0  0  0
   22.4513   -6.0101    8.7952 C   0  0  0  0  0  0  0  0  0  0  0  0
   22.2143   -7.0779    9.6549 C   0  0  0  0  0  0  0  0  0  0  0  0
   21.1538   -7.9512    9.4366 C   0  0  0  0  0  0  0  0  0  0  0  0
   20.3237   -7.7439    8.3393 C   0  0  0  0  0  0  0  0  0  0  0  0
   19.2145   -8.6480    8.1021 C   0  0  0  0  0  0  0  0  0  0  0  0
   18.5383   -9.1898    9.1902 C   0  0  0  0  0  0  0  0  0  0  0  0
   17.4762  -10.0560    8.9514 C   0  0  0  0  0  0  0  0  0  0  0  0
   16.7885  -10.6081   10.0398 N   0  0  0  0  0  0  0  0  0  0  0  0
   17.0103  -10.2276   11.4085 C   0  0  0  0  0  0  0  0  0  0  0  0
   16.0502   -9.4739   12.0764 C   0  0  0  0  0  0  0  0  0  0  0  0
   16.2561   -9.1012   13.4011 C   0  0  0  0  0  0  0  0  0  0  0  0
   17.4278   -9.4905   14.0416 C   0  0  0  0  0  0  0  0  0  0  0  0
   17.6399   -9.1348   15.3259 O   0  0  0  0  0  0  0  0  0  0  0  0
   16.7104   -9.3091   16.3932 C   0  0  0  0  0  0  0  0  0  0  0  0
   16.4070  -10.6500   16.5472 F   0  0  0  0  0  0  0  0  0  0  0  0
   15.5557   -8.5897   16.1422 F   0  0  0  0  0  0  0  0  0  0  0  0
   17.2792   -8.8440   17.5632 F   0  0  0  0  0  0  0  0  0  0  0  0
   18.3940  -10.2438   13.3812 C   0  0  0  0  0  0  0  0  0  0  0  0
   18.1796  -10.6123   12.0572 C   0  0  0  0  0  0  0  0  0  0  0  0
   17.1371  -10.3411    7.6849 N   0  0  0  0  0  0  0  0  0  0  0  0
   17.7987   -9.8106    6.6454 C   0  0  0  0  0  0  0  0  0  0  0  0
   18.8252   -8.9740    6.8604 N   0  0  0  0  0  0  0  0  0  0  0  0
   20.5424   -6.6826    7.4668 C   0  0  0  0  0  0  0  0  0  0  0  0
   23.6683   -4.8615    5.7165 H   0  0  0  0  0  0  0  0  0  0  0  0
   23.5878   -3.4893    6.7703 H   0  0  0  0  0  0  0  0  0  0  0  0
   23.2159   -5.3868    8.9592 H   0  0  0  0  0  0  0  0  0  0  0  0
   22.8152   -7.2197   10.4415 H   0  0  0  0  0  0  0  0  0  0  0  0
   20.9904   -8.7166   10.0590 H   0  0  0  0  0  0  0  0  0  0  0  0
   18.8100   -8.9614   10.1251 H   0  0  0  0  0  0  0  0  0  0  0  0
   16.1010  -11.3099    9.8533 H   0  0  0  0  0  0  0  0  0  0  0  0
   15.2122   -9.2001   11.6043 H   0  0  0  0  0  0  0  0  0  0  0  0
   15.5698   -8.5600   13.8869 H   0  0  0  0  0  0  0  0  0  0  0  0
   19.2323  -10.5169   13.8531 H   0  0  0  0  0  0  0  0  0  0  0  0
   18.8660  -11.1536   11.5715 H   0  0  0  0  0  0  0  0  0  0  0  0
   17.5268  -10.0386    5.7105 H   0  0  0  0  0  0  0  0  0  0  0  0
   19.9415   -6.5406    6.6802 H   0  0  0  0  0  0  0  0  0  0  0  0
  1  2  1  0  0  0  0
  2  3  2  0  0  0  0
  2  4  1  0  0  0  0
  4  5  2  0  0  0  0
  5  6  1  0  0  0  0
  6  7  2  0  0  0  0
  7  8  1  0  0  0  0
  8  9  1  0  0  0  0
  9 10  2  0  0  0  0
 10 11  1  0  0  0  0
 11 12  1  0  0  0  0
 12 13  1  0  0  0  0
 13 14  2  0  0  0  0
 14 15  1  0  0  0  0
 15 16  2  0  0  0  0
 16 17  1  0  0  0  0
 17 18  1  0  0  0  0
 18 19  1  0  0  0  0
 18 20  1  0  0  0  0
 18 21  1  0  0  0  0
 16 22  1  0  0  0  0
 22 23  2  0  0  0  0
 11 24  2  0  0  0  0
 24 25  1  0  0  0  0
 25 26  2  0  0  0  0
  8 27  2  0  0  0  0
 27  4  1  0  0  0  0
 26  9  1  0  0  0  0
 23 13  1  0  0  0  0
  1 28  1  0  0  0  0
  1 29  1  0  0  0  0
  5 30  1  0  0  0  0
  6 31  1  0  0  0  0
  7 32  1  0  0  0  0
 10 33  1  0  0  0  0
 12 34  1  0  0  0  0
 14 35  1  0  0  0  0
 15 36  1  0  0  0  0
 22 37  1  0  0  0  0
 23 38  1  0  0  0  0
 25 39  1  0  0  0  0
 27 40  1  0  0  0  0
M  END
> <BIOSOLVEIT.HYDE_ESTIMATED_AFFINITY_LOWER_BOUNDARY [nM]>
112.187936

> <BIOSOLVEIT.HYDE_ESTIMATED_AFFINITY_UPPER_BOUNDARY [nM]>
11146.534721

> <BIOSOLVEIT.HYDE_LIGAND_EFFICIENCY range: ++, +, 0, -, -->
0

> <BIOSOLVEIT.HYDE_LIGAND_LIPOPHILIC_EFFICIENCY range: ++, +, 0, -, -->
-

> <BIOSOLVEIT.INTER_CLASH range: red, yellow, green>
green

> <BIOSOLVEIT.INTRA_CLASH range: red, yellow, green>
green

> <BIOSOLVEIT.LOGP>
3.8847

> <BIOSOLVEIT.MOLECULAR WEIGHT>
374.321

> <BIOSOLVEIT.MOLECULE_CHECKSUM>
LTMzLjk3MTsxLjI1ODE4

> <BIOSOLVEIT.TORSION_QUALITY range: red, yellow, green, not rotatable>
red

> <BIOSOLVEIT.TPSA>
90.13

$$$$
3K5V_STJ_3
foHydescor03222115303D 1   1.00000     0.00000     0
Hydescorer 1.1.0 fol007
 40 42  0  0  0  0            999 V2000
   23.1517   -4.3157    6.4075 N   0  0  0  0  0  0  0  0  0  0  0  0
   21.8319   -4.7005    6.8015 C   0  0  0  0  0  0  0  0  0  0  0  0
   20.8500   -4.0454    6.3582 O   0  0  0  0  0  0  0  0  0  0  0  0
   21.6040   -5.8104    7.7061 C   0  0  0  0  0  0  0  0  0  0  0  0
   22.4481   -6.0000    8.7954 C   0  0  0  0  0  0  0  0  0  0  0  0
   22.2139   -7.0704    9.6526 C   0  0  0  0  0  0  0  0  0  0  0  0
   21.1546   -7.9448    9.4334 C   0  0  0  0  0  0  0  0  0  0  0  0
   20.3226   -7.7359    8.3379 C   0  0  0  0  0  0  0  0  0  0  0  0
   19.2146   -8.6412    8.0999 C   0  0  0  0  0  0  0  0  0  0  0  0
   18.5387   -9.1844    9.1876 C   0  0  0  0  0  0  0  0  0  0  0  0
   17.4777  -10.0517    8.9481 C   0  0  0  0  0  0  0  0  0  0  0  0
   16.7905  -10.6052   10.0360 N   0  0  0  0  0  0  0  0  0  0  0  0
   17.0123  -10.2262   11.4051 C   0  0  0  0  0  0  0  0  0  0  0  0
   16.0507   -9.4761   12.0748 C   0  0  0  0  0  0  0  0  0  0  0  0
   16.2567   -9.1048   13.3999 C   0  0  0  0  0  0  0  0  0  0  0  0
   17.4300   -9.4916   14.0388 C   0  0  0  0  0  0  0  0  0  0  0  0
   17.6422   -9.1372   15.3235 O   0  0  0  0  0  0  0  0  0  0  0  0
   16.7113   -9.3092   16.3899 C   0  0  0  0  0  0  0  0  0  0  0  0
   16.4037  -10.6493   16.5431 F   0  0  0  0  0  0  0  0  0  0  0  0
   15.5589   -8.5862   16.1385 F   0  0  0  0  0  0  0  0  0  0  0  0
   17.2805   -8.8464   17.5606 F   0  0  0  0  0  0  0  0  0  0  0  0
   18.3977  -10.2413   13.3767 C   0  0  0  0  0  0  0  0  0  0  0  0
   18.1833  -10.6085   12.0522 C   0  0  0  0  0  0  0  0  0  0  0  0
   17.1392  -10.3364    7.6813 N   0  0  0  0  0  0  0  0  0  0  0  0
   17.8005   -9.8045    6.6423 C   0  0  0  0  0  0  0  0  0  0  0  0
   18.8259   -8.9669    6.8580 N   0  0  0  0  0  0  0  0  0  0  0  0
   20.5384   -6.6721    7.4679 C   0  0  0  0  0  0  0  0  0  0  0  0
   23.5711   -3.4961    6.7977 H   0  0  0  0  0  0  0  0  0  0  0  0
   23.6552   -4.8664    5.7417 H   0  0  0  0  0  0  0  0  0  0  0  0
   23.2121   -5.3760    8.9599 H   0  0  0  0  0  0  0  0  0  0  0  0
   22.8162   -7.2134   10.4380 H   0  0  0  0  0  0  0  0  0  0  0  0
   20.9935   -8.7121   10.0540 H   0  0  0  0  0  0  0  0  0  0  0  0
   18.8100   -8.9562   10.1227 H   0  0  0  0  0  0  0  0  0  0  0  0
   16.1033  -11.3072    9.8489 H   0  0  0  0  0  0  0  0  0  0  0  0
   15.2116   -9.2039   11.6038 H   0  0  0  0  0  0  0  0  0  0  0  0
   15.5692   -8.5661   13.8871 H   0  0  0  0  0  0  0  0  0  0  0  0
   19.2371  -10.5129   13.8474 H   0  0  0  0  0  0  0  0  0  0  0  0
   18.8707  -11.1471   11.5651 H   0  0  0  0  0  0  0  0  0  0  0  0
   17.5291  -10.0323    5.7072 H   0  0  0  0  0  0  0  0  0  0  0  0
   19.9360   -6.5289    6.6826 H   0  0  0  0  0  0  0  0  0  0  0  0
  1  2  1  0  0  0  0
  2  3  2  0  0  0  0
  2  4  1  0  0  0  0
  4  5  2  0  0  0  0
  5  6  1  0  0  0  0
  6  7  2  0  0  0  0
  7  8  1  0  0  0  0
  8  9  1  0  0  0  0
  9 10  2  0  0  0  0
 10 11  1  0  0  0  0
 11 12  1  0  0  0  0
 12 13  1  0  0  0  0
 13 14  2  0  0  0  0
 14 15  1  0  0  0  0
 15 16  2  0  0  0  0
 16 17  1  0  0  0  0
 17 18  1  0  0  0  0
 18 19  1  0  0  0  0
 18 20  1  0  0  0  0
 18 21  1  0  0  0  0
 16 22  1  0  0  0  0
 22 23  2  0  0  0  0
 11 24  2  0  0  0  0
 24 25  1  0  0  0  0
 25 26  2  0  0  0  0
  8 27  2  0  0  0  0
 27  4  1  0  0  0  0
 26  9  1  0  0  0  0
 23 13  1  0  0  0  0
  1 28  1  0  0  0  0
  1 29  1  0  0  0  0
  5 30  1  0  0  0  0
  6 31  1  0  0  0  0
  7 32  1  0  0  0  0
 10 33  1  0  0  0  0
 12 34  1  0  0  0  0
 14 35  1  0  0  0  0
 15 36  1  0  0  0  0
 22 37  1  0  0  0  0
 23 38  1  0  0  0  0
 25 39  1  0  0  0  0
 27 40  1  0  0  0  0
M  END
> <BIOSOLVEIT.HYDE_ESTIMATED_AFFINITY_LOWER_BOUNDARY [nM]>
115.584152

> <BIOSOLVEIT.HYDE_ESTIMATED_AFFINITY_UPPER_BOUNDARY [nM]>
11483.968934

> <BIOSOLVEIT.HYDE_LIGAND_EFFICIENCY range: ++, +, 0, -, -->
0

> <BIOSOLVEIT.HYDE_LIGAND_LIPOPHILIC_EFFICIENCY range: ++, +, 0, -, -->
-

> <BIOSOLVEIT.INTER_CLASH range: red, yellow, green>
green

> <BIOSOLVEIT.INTRA_CLASH range: red, yellow, green>
green

> <BIOSOLVEIT.LOGP>
3.8847

> <BIOSOLVEIT.MOLECULAR WEIGHT>
374.321

> <BIOSOLVEIT.MOLECULE_CHECKSUM>
LTMzLjg5NzsxLjI1NTQ1

> <BIOSOLVEIT.TORSION_QUALITY range: red, yellow, green, not rotatable>
red

> <BIOSOLVEIT.TPSA>
90.13

$$$$
3K5V_STI_1
foHydescor03222115303D 1   1.00000     0.00000     0
Hydescorer 1.1.0 fol007
 70 74  0  0  0  0            999 V2000
   13.6947   -8.1363   17.7775 C   0  0  0  0  0  0  0  0  0  0  0  0
   14.3949   -7.4830   18.9580 C   0  0  0  0  0  0  0  0  0  0  0  0
   13.7374   -6.4707   19.6492 C   0  0  0  0  0  0  0  0  0  0  0  0
   14.3538   -5.8552   20.7339 C   0  0  0  0  0  0  0  0  0  0  0  0
   15.6277   -6.2629   21.1160 C   0  0  0  0  0  0  0  0  0  0  0  0
   16.2571   -5.6499   22.2060 N   0  0  0  0  0  0  0  0  0  0  0  0
   15.6749   -4.5747   22.9626 C   0  0  0  0  0  0  0  0  0  0  0  0
   14.8843   -3.7700   22.3976 O   0  0  0  0  0  0  0  0  0  0  0  0
   16.0309   -4.3681   24.3877 C   0  0  0  0  0  0  0  0  0  0  0  0
   15.9035   -3.1000   24.9456 C   0  0  0  0  0  0  0  0  0  0  0  0
   16.2324   -2.8913   26.2813 C   0  0  0  0  0  0  0  0  0  0  0  0
   16.6871   -3.9639   27.0426 C   0  0  0  0  0  0  0  0  0  0  0  0
   17.0510   -3.7503   28.5031 C   0  0  0  0  0  0  0  0  0  0  0  0
   15.8503   -3.6661   29.3687 N   0  3  0  0  0  0  0  0  0  0  0  0
   16.2399   -3.1809   30.7007 C   0  0  0  0  0  0  0  0  0  0  0  0
   15.0541   -3.2281   31.6537 C   0  0  0  0  0  0  0  0  0  0  0  0
   14.4377   -4.5653   31.6958 N   0  3  0  0  0  0  0  0  0  0  0  0
   14.4281   -5.0967   33.0670 C   0  0  0  0  0  0  0  0  0  0  0  0
   15.0655   -5.5440   30.7936 C   0  0  0  0  0  0  0  0  0  0  0  0
   15.1892   -4.9842   29.3867 C   0  0  0  0  0  0  0  0  0  0  0  0
   16.8163   -5.2332   26.4888 C   0  0  0  0  0  0  0  0  0  0  0  0
   16.4861   -5.4369   25.1525 C   0  0  0  0  0  0  0  0  0  0  0  0
   16.2917   -7.2746   20.4298 C   0  0  0  0  0  0  0  0  0  0  0  0
   15.6692   -7.8855   19.3459 C   0  0  0  0  0  0  0  0  0  0  0  0
   16.3407   -8.9304   18.6283 N   0  0  0  0  0  0  0  0  0  0  0  0
   16.5706   -8.8705   17.2479 C   0  0  0  0  0  0  0  0  0  0  0  0
   16.0751   -7.8359   16.5530 N   0  0  0  0  0  0  0  0  0  0  0  0
   16.2638   -7.7267   15.2297 C   0  0  0  0  0  0  0  0  0  0  0  0
   16.9890   -8.7051   14.5576 C   0  0  0  0  0  0  0  0  0  0  0  0
   17.4988   -9.7741   15.2864 C   0  0  0  0  0  0  0  0  0  0  0  0
   18.2568  -10.7999   14.5925 C   0  0  0  0  0  0  0  0  0  0  0  0
   18.6978  -10.5640   13.2947 C   0  0  0  0  0  0  0  0  0  0  0  0
   19.4241  -11.5484   12.6339 C   0  0  0  0  0  0  0  0  0  0  0  0
   19.6871  -12.7427   13.2962 C   0  0  0  0  0  0  0  0  0  0  0  0
   19.2510  -12.9469   14.5481 N   0  0  0  0  0  0  0  0  0  0  0  0
   18.5487  -12.0131   15.2072 C   0  0  0  0  0  0  0  0  0  0  0  0
   17.2721   -9.8210   16.6094 N   0  0  0  0  0  0  0  0  0  0  0  0
   14.2877   -8.8399   17.3859 H   0  0  0  0  0  0  0  0  0  0  0  0
   12.8404   -8.5545   18.0864 H   0  0  0  0  0  0  0  0  0  0  0  0
   13.4954   -7.4443   17.0836 H   0  0  0  0  0  0  0  0  0  0  0  0
   12.8216   -6.1855   19.3664 H   0  0  0  0  0  0  0  0  0  0  0  0
   13.8856   -5.1268   21.2340 H   0  0  0  0  0  0  0  0  0  0  0  0
   17.1629   -5.9784   22.4735 H   0  0  0  0  0  0  0  0  0  0  0  0
   15.5755   -2.3384   24.3867 H   0  0  0  0  0  0  0  0  0  0  0  0
   16.1434   -1.9825   26.6890 H   0  0  0  0  0  0  0  0  0  0  0  0
   17.5687   -2.8987   28.5855 H   0  0  0  0  0  0  0  0  0  0  0  0
   17.6171   -4.5154   28.8099 H   0  0  0  0  0  0  0  0  0  0  0  0
   15.2188   -3.0038   28.9657 H   0  0  0  0  0  0  0  0  0  0  0  0
   16.5641   -2.2379   30.6254 H   0  0  0  0  0  0  0  0  0  0  0  0
   16.9735   -3.7580   31.0595 H   0  0  0  0  0  0  0  0  0  0  0  0
   14.3691   -2.5655   31.3510 H   0  0  0  0  0  0  0  0  0  0  0  0
   15.3676   -2.9873   32.5723 H   0  0  0  0  0  0  0  0  0  0  0  0
   13.4852   -4.4635   31.4089 H   0  0  0  0  0  0  0  0  0  0  0  0
   14.0058   -6.0031   33.0701 H   0  0  0  0  0  0  0  0  0  0  0  0
   15.3669   -5.1651   33.4045 H   0  0  0  0  0  0  0  0  0  0  0  0
   13.9050   -4.4831   33.6586 H   0  0  0  0  0  0  0  0  0  0  0  0
   14.5053   -6.3719   30.7683 H   0  0  0  0  0  0  0  0  0  0  0  0
   15.9771   -5.7686   31.1378 H   0  0  0  0  0  0  0  0  0  0  0  0
   14.2738   -4.8909   28.9954 H   0  0  0  0  0  0  0  0  0  0  0  0
   15.7252   -5.6211   28.8326 H   0  0  0  0  0  0  0  0  0  0  0  0
   17.1445   -5.9949   27.0475 H   0  0  0  0  0  0  0  0  0  0  0  0
   16.5754   -6.3456   24.7448 H   0  0  0  0  0  0  0  0  0  0  0  0
   17.2074   -7.5600   20.7128 H   0  0  0  0  0  0  0  0  0  0  0  0
   16.6572   -9.7333   19.1336 H   0  0  0  0  0  0  0  0  0  0  0  0
   15.8858   -6.9476   14.7297 H   0  0  0  0  0  0  0  0  0  0  0  0
   17.1406   -8.6412   13.5712 H   0  0  0  0  0  0  0  0  0  0  0  0
   18.4946   -9.6958   12.8417 H   0  0  0  0  0  0  0  0  0  0  0  0
   19.7511  -11.4005   11.7005 H   0  0  0  0  0  0  0  0  0  0  0  0
   20.2085  -13.4592   12.8327 H   0  0  0  0  0  0  0  0  0  0  0  0
   18.2350  -12.1891   16.1403 H   0  0  0  0  0  0  0  0  0  0  0  0
  1  2  1  0  0  0  0
  2  3  2  0  0  0  0
  3  4  1  0  0  0  0
  4  5  2  0  0  0  0
  5  6  1  0  0  0  0
  6  7  1  0  0  0  0
  7  8  2  0  0  0  0
  7  9  1  0  0  0  0
  9 10  2  0  0  0  0
 10 11  1  0  0  0  0
 11 12  2  0  0  0  0
 12 13  1  0  0  0  0
 13 14  1  0  0  0  0
 14 15  1  0  0  0  0
 15 16  1  0  0  0  0
 16 17  1  0  0  0  0
 17 18  1  0  0  0  0
 17 19  1  0  0  0  0
 19 20  1  0  0  0  0
 12 21  1  0  0  0  0
 21 22  2  0  0  0  0
  5 23  1  0  0  0  0
 23 24  2  0  0  0  0
 24 25  1  0  0  0  0
 25 26  1  0  0  0  0
 26 27  2  0  0  0  0
 27 28  1  0  0  0  0
 28 29  2  0  0  0  0
 29 30  1  0  0  0  0
 30 31  1  0  0  0  0
 31 32  2  0  0  0  0
 32 33  1  0  0  0  0
 33 34  2  0  0  0  0
 34 35  1  0  0  0  0
 35 36  2  0  0  0  0
 30 37  2  0  0  0  0
 24  2  1  0  0  0  0
 37 26  1  0  0  0  0
 22  9  1  0  0  0  0
 36 31  1  0  0  0  0
 20 14  1  0  0  0  0
  1 38  1  0  0  0  0
  1 39  1  0  0  0  0
  1 40  1  0  0  0  0
  3 41  1  0  0  0  0
  4 42  1  0  0  0  0
  6 43  1  0  0  0  0
 10 44  1  0  0  0  0
 11 45  1  0  0  0  0
 13 46  1  0  0  0  0
 13 47  1  0  0  0  0
 14 48  1  0  0  0  0
 15 49  1  0  0  0  0
 15 50  1  0  0  0  0
 16 51  1  0  0  0  0
 16 52  1  0  0  0  0
 17 53  1  0  0  0  0
 18 54  1  0  0  0  0
 18 55  1  0  0  0  0
 18 56  1  0  0  0  0
 19 57  1  0  0  0  0
 19 58  1  0  0  0  0
 20 59  1  0  0  0  0
 20 60  1  0  0  0  0
 21 61  1  0  0  0  0
 22 62  1  0  0  0  0
 23 63  1  0  0  0  0
 25 64  1  0  0  0  0
 28 65  1  0  0  0  0
 29 66  1  0  0  0  0
 32 67  1  0  0  0  0
 33 68  1  0  0  0  0
 34 69  1  0  0  0  0
 36 70  1  0  0  0  0
M  CHG  2  14   1  17   1
M  END
> <BIOSOLVEIT.HYDE_ESTIMATED_AFFINITY_LOWER_BOUNDARY [nM]>
1480530.146042

> <BIOSOLVEIT.HYDE_ESTIMATED_AFFINITY_UPPER_BOUNDARY [nM]>
147099423.596236

> <BIOSOLVEIT.HYDE_LIGAND_EFFICIENCY range: ++, +, 0, -, -->
--

> <BIOSOLVEIT.HYDE_LIGAND_LIPOPHILIC_EFFICIENCY range: ++, +, 0, -, -->
--

> <BIOSOLVEIT.INTER_CLASH range: red, yellow, green>
yellow

> <BIOSOLVEIT.INTRA_CLASH range: red, yellow, green>
red

> <BIOSOLVEIT.LOGP>
1.75612

> <BIOSOLVEIT.MOLECULAR WEIGHT>
495.628

> <BIOSOLVEIT.MOLECULE_CHECKSUM>
LTEwLjQ1MTM7MC4yODI0Njc=

> <BIOSOLVEIT.TORSION_QUALITY range: red, yellow, green, not rotatable>
green

> <BIOSOLVEIT.TPSA>
88.68

$$$$
3K5V_STI_2
foHydescor03222115303D 1   1.00000     0.00000     0
Hydescorer 1.1.0 fol007
 70 74  0  0  0  0            999 V2000
   13.6948   -8.1346   17.7778 C   0  0  0  0  0  0  0  0  0  0  0  0
   14.3936   -7.4813   18.9591 C   0  0  0  0  0  0  0  0  0  0  0  0
   13.7353   -6.4690   19.6495 C   0  0  0  0  0  0  0  0  0  0  0  0
   14.3505   -5.8534   20.7349 C   0  0  0  0  0  0  0  0  0  0  0  0
   15.6240   -6.2611   21.1184 C   0  0  0  0  0  0  0  0  0  0  0  0
   16.2521   -5.6480   22.2091 N   0  0  0  0  0  0  0  0  0  0  0  0
   15.6704   -4.5707   22.9631 C   0  0  0  0  0  0  0  0  0  0  0  0
   14.8827   -3.7651   22.3953 O   0  0  0  0  0  0  0  0  0  0  0  0
   16.0236   -4.3631   24.3887 C   0  0  0  0  0  0  0  0  0  0  0  0
   15.8843   -3.0971   24.9486 C   0  0  0  0  0  0  0  0  0  0  0  0
   16.2104   -2.8875   26.2848 C   0  0  0  0  0  0  0  0  0  0  0  0
   16.6743   -3.9571   27.0448 C   0  0  0  0  0  0  0  0  0  0  0  0
   17.0353   -3.7425   28.5058 C   0  0  0  0  0  0  0  0  0  0  0  0
   15.8553   -3.8691   29.3945 N   0  3  0  0  0  0  0  0  0  0  0  0
   15.1847   -5.1649   29.1827 C   0  0  0  0  0  0  0  0  0  0  0  0
   13.7283   -5.0120   28.7624 C   0  0  0  0  0  0  0  0  0  0  0  0
   13.0281   -4.1650   29.7399 N   0  3  0  0  0  0  0  0  0  0  0  0
   11.6537   -3.9293   29.2770 C   0  0  0  0  0  0  0  0  0  0  0  0
   13.7122   -2.8877   30.0023 C   0  0  0  0  0  0  0  0  0  0  0  0
   14.9696   -2.7185   29.1624 C   0  0  0  0  0  0  0  0  0  0  0  0
   16.8154   -5.2244   26.4891 C   0  0  0  0  0  0  0  0  0  0  0  0
   16.4878   -5.4289   25.1523 C   0  0  0  0  0  0  0  0  0  0  0  0
   16.2887   -7.2728   20.4330 C   0  0  0  0  0  0  0  0  0  0  0  0
   15.6674   -7.8838   19.3484 C   0  0  0  0  0  0  0  0  0  0  0  0
   16.3398   -8.9287   18.6317 N   0  0  0  0  0  0  0  0  0  0  0  0
   16.5696   -8.8697   17.2512 C   0  0  0  0  0  0  0  0  0  0  0  0
   16.0746   -7.8353   16.5558 N   0  0  0  0  0  0  0  0  0  0  0  0
   16.2631   -7.7270   15.2324 C   0  0  0  0  0  0  0  0  0  0  0  0
   16.9877   -8.7062   14.5607 C   0  0  0  0  0  0  0  0  0  0  0  0
   17.4970   -9.7750   15.2902 C   0  0  0  0  0  0  0  0  0  0  0  0
   18.2543  -10.8017   14.5968 C   0  0  0  0  0  0  0  0  0  0  0  0
   18.6971  -10.5659   13.2995 C   0  0  0  0  0  0  0  0  0  0  0  0
   19.4228  -11.5512   12.6393 C   0  0  0  0  0  0  0  0  0  0  0  0
   19.6833  -12.7461   13.3015 C   0  0  0  0  0  0  0  0  0  0  0  0
   19.2455  -12.9501   14.5528 N   0  0  0  0  0  0  0  0  0  0  0  0
   18.5437  -12.0155   15.2114 C   0  0  0  0  0  0  0  0  0  0  0  0
   17.2704   -9.8210   16.6132 N   0  0  0  0  0  0  0  0  0  0  0  0
   14.2882   -8.8382   17.3870 H   0  0  0  0  0  0  0  0  0  0  0  0
   12.8401   -8.5528   18.0858 H   0  0  0  0  0  0  0  0  0  0  0  0
   13.4963   -7.4427   17.0837 H   0  0  0  0  0  0  0  0  0  0  0  0
   12.8199   -6.1837   19.3656 H   0  0  0  0  0  0  0  0  0  0  0  0
   13.8818   -5.1249   21.2344 H   0  0  0  0  0  0  0  0  0  0  0  0
   17.1567   -5.9780   22.4791 H   0  0  0  0  0  0  0  0  0  0  0  0
   15.5497   -2.3377   24.3906 H   0  0  0  0  0  0  0  0  0  0  0  0
   16.1128   -1.9801   26.6938 H   0  0  0  0  0  0  0  0  0  0  0  0
   17.4221   -2.8264   28.6114 H   0  0  0  0  0  0  0  0  0  0  0  0
   17.7157   -4.4246   28.7737 H   0  0  0  0  0  0  0  0  0  0  0  0
   16.1726   -3.8328   30.3421 H   0  0  0  0  0  0  0  0  0  0  0  0
   15.2185   -5.6857   30.0357 H   0  0  0  0  0  0  0  0  0  0  0  0
   15.6732   -5.6647   28.4675 H   0  0  0  0  0  0  0  0  0  0  0  0
   13.2939   -5.9121   28.7283 H   0  0  0  0  0  0  0  0  0  0  0  0
   13.6841   -4.5861   27.8588 H   0  0  0  0  0  0  0  0  0  0  0  0
   12.9788   -4.6689   30.6022 H   0  0  0  0  0  0  0  0  0  0  0  0
   11.1732   -3.3536   29.9386 H   0  0  0  0  0  0  0  0  0  0  0  0
   11.6752   -3.4699   28.3890 H   0  0  0  0  0  0  0  0  0  0  0  0
   11.1772   -4.8040   29.1884 H   0  0  0  0  0  0  0  0  0  0  0  0
   13.9648   -2.8517   30.9692 H   0  0  0  0  0  0  0  0  0  0  0  0
   13.0837   -2.1383   29.7939 H   0  0  0  0  0  0  0  0  0  0  0  0
   15.4383   -1.8753   29.4258 H   0  0  0  0  0  0  0  0  0  0  0  0
   14.7232   -2.6744   28.1942 H   0  0  0  0  0  0  0  0  0  0  0  0
   17.1501   -5.9839   27.0469 H   0  0  0  0  0  0  0  0  0  0  0  0
   16.5856   -6.3362   24.7432 H   0  0  0  0  0  0  0  0  0  0  0  0
   17.2041   -7.5582   20.7171 H   0  0  0  0  0  0  0  0  0  0  0  0
   16.6569   -9.7309   19.1376 H   0  0  0  0  0  0  0  0  0  0  0  0
   15.8855   -6.9479   14.7319 H   0  0  0  0  0  0  0  0  0  0  0  0
   17.1392   -8.6429   13.5743 H   0  0  0  0  0  0  0  0  0  0  0  0
   18.4957   -9.6974   12.8467 H   0  0  0  0  0  0  0  0  0  0  0  0
   19.7511  -11.4034   11.7063 H   0  0  0  0  0  0  0  0  0  0  0  0
   20.2042  -13.4632   12.8383 H   0  0  0  0  0  0  0  0  0  0  0  0
   18.2288  -12.1914   16.1441 H   0  0  0  0  0  0  0  0  0  0  0  0
  1  2  1  0  0  0  0
  2  3  2  0  0  0  0
  3  4  1  0  0  0  0
  4  5  2  0  0  0  0
  5  6  1  0  0  0  0
  6  7  1  0  0  0  0
  7  8  2  0  0  0  0
  7  9  1  0  0  0  0
  9 10  2  0  0  0  0
 10 11  1  0  0  0  0
 11 12  2  0  0  0  0
 12 13  1  0  0  0  0
 13 14  1  0  0  0  0
 14 15  1  0  0  0  0
 15 16  1  0  0  0  0
 16 17  1  0  0  0  0
 17 18  1  0  0  0  0
 17 19  1  0  0  0  0
 19 20  1  0  0  0  0
 12 21  1  0  0  0  0
 21 22  2  0  0  0  0
  5 23  1  0  0  0  0
 23 24  2  0  0  0  0
 24 25  1  0  0  0  0
 25 26  1  0  0  0  0
 26 27  2  0  0  0  0
 27 28  1  0  0  0  0
 28 29  2  0  0  0  0
 29 30  1  0  0  0  0
 30 31  1  0  0  0  0
 31 32  2  0  0  0  0
 32 33  1  0  0  0  0
 33 34  2  0  0  0  0
 34 35  1  0  0  0  0
 35 36  2  0  0  0  0
 30 37  2  0  0  0  0
 24  2  1  0  0  0  0
 37 26  1  0  0  0  0
 22  9  1  0  0  0  0
 36 31  1  0  0  0  0
 20 14  1  0  0  0  0
  1 38  1  0  0  0  0
  1 39  1  0  0  0  0
  1 40  1  0  0  0  0
  3 41  1  0  0  0  0
  4 42  1  0  0  0  0
  6 43  1  0  0  0  0
 10 44  1  0  0  0  0
 11 45  1  0  0  0  0
 13 46  1  0  0  0  0
 13 47  1  0  0  0  0
 14 48  1  0  0  0  0
 15 49  1  0  0  0  0
 15 50  1  0  0  0  0
 16 51  1  0  0  0  0
 16 52  1  0  0  0  0
 17 53  1  0  0  0  0
 18 54  1  0  0  0  0
 18 55  1  0  0  0  0
 18 56  1  0  0  0  0
 19 57  1  0  0  0  0
 19 58  1  0  0  0  0
 20 59  1  0  0  0  0
 20 60  1  0  0  0  0
 21 61  1  0  0  0  0
 22 62  1  0  0  0  0
 23 63  1  0  0  0  0
 25 64  1  0  0  0  0
 28 65  1  0  0  0  0
 29 66  1  0  0  0  0
 32 67  1  0  0  0  0
 33 68  1  0  0  0  0
 34 69  1  0  0  0  0
 36 70  1  0  0  0  0
M  CHG  2  14   1  17   1
M  END
> <BIOSOLVEIT.HYDE_ESTIMATED_AFFINITY_LOWER_BOUNDARY [nM]>
88152038.144215

> <BIOSOLVEIT.HYDE_ESTIMATED_AFFINITY_UPPER_BOUNDARY [nM]>
8758426185.725342

> <BIOSOLVEIT.HYDE_LIGAND_EFFICIENCY range: ++, +, 0, -, -->
--

> <BIOSOLVEIT.HYDE_LIGAND_LIPOPHILIC_EFFICIENCY range: ++, +, 0, -, -->
--

> <BIOSOLVEIT.INTER_CLASH range: red, yellow, green>
yellow

> <BIOSOLVEIT.INTRA_CLASH range: red, yellow, green>
red

> <BIOSOLVEIT.LOGP>
1.75612

> <BIOSOLVEIT.MOLECULAR WEIGHT>
495.628

> <BIOSOLVEIT.MOLECULE_CHECKSUM>
LTAuMzIwNjIzOzAuMDA4NjY1NQ==

> <BIOSOLVEIT.TORSION_QUALITY range: red, yellow, green, not rotatable>
green

> <BIOSOLVEIT.TPSA>
88.68

$$$$
3K5V_STI_3
foHydescor03222115303D 1   1.00000     0.00000     0
Hydescorer 1.1.0 fol007
 70 74  0  0  0  0            999 V2000
   13.7011   -8.1361   17.7385 C   0  0  0  0  0  0  0  0  0  0  0  0
   14.3854   -7.4825   18.9281 C   0  0  0  0  0  0  0  0  0  0  0  0
   13.7165   -6.4739   19.6136 C   0  0  0  0  0  0  0  0  0  0  0  0
   14.3183   -5.8581   20.7064 C   0  0  0  0  0  0  0  0  0  0  0  0
   15.5892   -6.2619   21.1021 C   0  0  0  0  0  0  0  0  0  0  0  0
   16.2039   -5.6487   22.2003 N   0  0  0  0  0  0  0  0  0  0  0  0
   15.6291   -4.5476   22.9247 C   0  0  0  0  0  0  0  0  0  0  0  0
   14.8755   -3.7317   22.3262 O   0  0  0  0  0  0  0  0  0  0  0  0
   15.9509   -4.3285   24.3561 C   0  0  0  0  0  0  0  0  0  0  0  0
   15.8952   -3.0401   24.8782 C   0  0  0  0  0  0  0  0  0  0  0  0
   16.1931   -2.8194   26.2193 C   0  0  0  0  0  0  0  0  0  0  0  0
   16.5446   -3.9006   27.0220 C   0  0  0  0  0  0  0  0  0  0  0  0
   16.8736   -3.6742   28.4888 C   0  0  0  0  0  0  0  0  0  0  0  0
   15.7391   -4.0302   29.3744 N   0  3  0  0  0  0  0  0  0  0  0  0
   14.4784   -3.6104   28.7371 C   0  0  0  0  0  0  0  0  0  0  0  0
   13.2972   -4.0712   29.5789 C   0  0  0  0  0  0  0  0  0  0  0  0
   13.3228   -5.5212   29.8415 N   0  3  0  0  0  0  0  0  0  0  0  0
   12.0968   -6.1632   29.3417 C   0  0  0  0  0  0  0  0  0  0  0  0
   14.4985   -6.1800   29.2489 C   0  0  0  0  0  0  0  0  0  0  0  0
   15.7950   -5.4786   29.6292 C   0  0  0  0  0  0  0  0  0  0  0  0
   16.6019   -5.1902   26.5040 C   0  0  0  0  0  0  0  0  0  0  0  0
   16.3030   -5.4058   25.1622 C   0  0  0  0  0  0  0  0  0  0  0  0
   16.2646   -7.2700   20.4217 C   0  0  0  0  0  0  0  0  0  0  0  0
   15.6567   -7.8811   19.3296 C   0  0  0  0  0  0  0  0  0  0  0  0
   16.3401   -8.9222   18.6179 N   0  0  0  0  0  0  0  0  0  0  0  0
   16.5783   -8.8626   17.2388 C   0  0  0  0  0  0  0  0  0  0  0  0
   16.0952   -7.8232   16.5424 N   0  0  0  0  0  0  0  0  0  0  0  0
   16.2921   -7.7141   15.2202 C   0  0  0  0  0  0  0  0  0  0  0  0
   17.0131   -8.6977   14.5510 C   0  0  0  0  0  0  0  0  0  0  0  0
   17.5099   -9.7717   15.2815 C   0  0  0  0  0  0  0  0  0  0  0  0
   18.2632  -10.8029   14.5906 C   0  0  0  0  0  0  0  0  0  0  0  0
   18.7091  -10.5711   13.2937 C   0  0  0  0  0  0  0  0  0  0  0  0
   19.4310  -11.5607   12.6359 C   0  0  0  0  0  0  0  0  0  0  0  0
   19.6847  -12.7561   13.3001 C   0  0  0  0  0  0  0  0  0  0  0  0
   19.2440  -12.9563   14.5510 N   0  0  0  0  0  0  0  0  0  0  0  0
   18.5458  -12.0173   15.2073 C   0  0  0  0  0  0  0  0  0  0  0  0
   17.2754   -9.8182   16.6031 N   0  0  0  0  0  0  0  0  0  0  0  0
   14.3011   -8.8368   17.3524 H   0  0  0  0  0  0  0  0  0  0  0  0
   12.8449   -8.5580   18.0369 H   0  0  0  0  0  0  0  0  0  0  0  0
   13.5072   -7.4436   17.0437 H   0  0  0  0  0  0  0  0  0  0  0  0
   12.8029   -6.1914   19.3209 H   0  0  0  0  0  0  0  0  0  0  0  0
   13.8418   -5.1324   21.2025 H   0  0  0  0  0  0  0  0  0  0  0  0
   17.0932   -5.9961   22.4978 H   0  0  0  0  0  0  0  0  0  0  0  0
   15.6411   -2.2727   24.2897 H   0  0  0  0  0  0  0  0  0  0  0  0
   16.1552   -1.8961   26.6014 H   0  0  0  0  0  0  0  0  0  0  0  0
   17.0981   -2.7091   28.6239 H   0  0  0  0  0  0  0  0  0  0  0  0
   17.6629   -4.2374   28.7332 H   0  0  0  0  0  0  0  0  0  0  0  0
   15.8409   -3.5444   30.2425 H   0  0  0  0  0  0  0  0  0  0  0  0
   14.4155   -4.0173   27.8258 H   0  0  0  0  0  0  0  0  0  0  0  0
   14.4617   -2.6136   28.6590 H   0  0  0  0  0  0  0  0  0  0  0  0
   12.4515   -3.8481   29.0941 H   0  0  0  0  0  0  0  0  0  0  0  0
   13.3181   -3.5866   30.4533 H   0  0  0  0  0  0  0  0  0  0  0  0
   13.3600   -5.6552   30.8318 H   0  0  0  0  0  0  0  0  0  0  0  0
   12.1341   -7.1447   29.5295 H   0  0  0  0  0  0  0  0  0  0  0  0
   11.3018   -5.7661   29.8005 H   0  0  0  0  0  0  0  0  0  0  0  0
   12.0211   -6.0151   28.3557 H   0  0  0  0  0  0  0  0  0  0  0  0
   14.4063   -6.1712   28.2532 H   0  0  0  0  0  0  0  0  0  0  0  0
   14.5360   -7.1258   29.5718 H   0  0  0  0  0  0  0  0  0  0  0  0
   16.5426   -5.8712   29.0935 H   0  0  0  0  0  0  0  0  0  0  0  0
   15.9682   -5.6279   30.6027 H   0  0  0  0  0  0  0  0  0  0  0  0
   16.8562   -5.9578   27.0923 H   0  0  0  0  0  0  0  0  0  0  0  0
   16.3412   -6.3292   24.7801 H   0  0  0  0  0  0  0  0  0  0  0  0
   17.1781   -7.5525   20.7146 H   0  0  0  0  0  0  0  0  0  0  0  0
   16.6592   -9.7220   19.1263 H   0  0  0  0  0  0  0  0  0  0  0  0
   15.9234   -6.9313   14.7191 H   0  0  0  0  0  0  0  0  0  0  0  0
   17.1706   -8.6339   13.5656 H   0  0  0  0  0  0  0  0  0  0  0  0
   18.5127   -9.7021   12.8394 H   0  0  0  0  0  0  0  0  0  0  0  0
   19.7614  -11.4158   11.7032 H   0  0  0  0  0  0  0  0  0  0  0  0
   20.2028  -13.4763   12.8387 H   0  0  0  0  0  0  0  0  0  0  0  0
   18.2285  -12.1904   16.1397 H   0  0  0  0  0  0  0  0  0  0  0  0
  1  2  1  0  0  0  0
  2  3  2  0  0  0  0
  3  4  1  0  0  0  0
  4  5  2  0  0  0  0
  5  6  1  0  0  0  0
  6  7  1  0  0  0  0
  7  8  2  0  0  0  0
  7  9  1  0  0  0  0
  9 10  2  0  0  0  0
 10 11  1  0  0  0  0
 11 12  2  0  0  0  0
 12 13  1  0  0  0  0
 13 14  1  0  0  0  0
 14 15  1  0  0  0  0
 15 16  1  0  0  0  0
 16 17  1  0  0  0  0
 17 18  1  0  0  0  0
 17 19  1  0  0  0  0
 19 20  1  0  0  0  0
 12 21  1  0  0  0  0
 21 22  2  0  0  0  0
  5 23  1  0  0  0  0
 23 24  2  0  0  0  0
 24 25  1  0  0  0  0
 25 26  1  0  0  0  0
 26 27  2  0  0  0  0
 27 28  1  0  0  0  0
 28 29  2  0  0  0  0
 29 30  1  0  0  0  0
 30 31  1  0  0  0  0
 31 32  2  0  0  0  0
 32 33  1  0  0  0  0
 33 34  2  0  0  0  0
 34 35  1  0  0  0  0
 35 36  2  0  0  0  0
 30 37  2  0  0  0  0
 24  2  1  0  0  0  0
 37 26  1  0  0  0  0
 22  9  1  0  0  0  0
 36 31  1  0  0  0  0
 20 14  1  0  0  0  0
  1 38  1  0  0  0  0
  1 39  1  0  0  0  0
  1 40  1  0  0  0  0
  3 41  1  0  0  0  0
  4 42  1  0  0  0  0
  6 43  1  0  0  0  0
 10 44  1  0  0  0  0
 11 45  1  0  0  0  0
 13 46  1  0  0  0  0
 13 47  1  0  0  0  0
 14 48  1  0  0  0  0
 15 49  1  0  0  0  0
 15 50  1  0  0  0  0
 16 51  1  0  0  0  0
 16 52  1  0  0  0  0
 17 53  1  0  0  0  0
 18 54  1  0  0  0  0
 18 55  1  0  0  0  0
 18 56  1  0  0  0  0
 19 57  1  0  0  0  0
 19 58  1  0  0  0  0
 20 59  1  0  0  0  0
 20 60  1  0  0  0  0
 21 61  1  0  0  0  0
 22 62  1  0  0  0  0
 23 63  1  0  0  0  0
 25 64  1  0  0  0  0
 28 65  1  0  0  0  0
 29 66  1  0  0  0  0
 32 67  1  0  0  0  0
 33 68  1  0  0  0  0
 34 69  1  0  0  0  0
 36 70  1  0  0  0  0
M  CHG  2  14   1  17   1
M  END
> <BIOSOLVEIT.HYDE_ESTIMATED_AFFINITY_LOWER_BOUNDARY [nM]>
14050450.205869

> <BIOSOLVEIT.HYDE_ESTIMATED_AFFINITY_UPPER_BOUNDARY [nM]>
1395995300.789204

> <BIOSOLVEIT.HYDE_LIGAND_EFFICIENCY range: ++, +, 0, -, -->
--

> <BIOSOLVEIT.HYDE_LIGAND_LIPOPHILIC_EFFICIENCY range: ++, +, 0, -, -->
--

> <BIOSOLVEIT.INTER_CLASH range: red, yellow, green>
yellow

> <BIOSOLVEIT.INTRA_CLASH range: red, yellow, green>
red

> <BIOSOLVEIT.LOGP>
1.75612

> <BIOSOLVEIT.MOLECULAR WEIGHT>
495.628

> <BIOSOLVEIT.MOLECULE_CHECKSUM>
LTQuODczOzAuMTMxNzAz

> <BIOSOLVEIT.TORSION_QUALITY range: red, yellow, green, not rotatable>
green

> <BIOSOLVEIT.TPSA>
88.68

$$$$
3KFA_B91_1
foHydescor03222115303D 1   1.00000     0.00000     0
Hydescorer 1.1.0 fol007
 66 71  0  0  0  0            999 V2000
   20.3212   -5.2947   23.9488 C   0  0  0  0  0  0  0  0  0  0  0  0
   18.8729   -5.4920   23.5301 C   0  0  0  0  0  0  0  0  0  0  0  0
   18.4598   -5.9526   22.3187 C   0  0  0  0  0  0  0  0  0  0  0  0
   17.0998   -5.9756   22.3701 N   0  0  0  0  0  0  0  0  0  0  0  0
   16.2415   -6.3801   21.3412 C   0  0  0  0  0  0  0  0  0  0  0  0
   16.6535   -7.3806   20.4678 C   0  0  0  0  0  0  0  0  0  0  0  0
   15.7938   -7.7773   19.4484 C   0  0  0  0  0  0  0  0  0  0  0  0
   16.2019   -8.8114   18.5358 N   0  0  0  0  0  0  0  0  0  0  0  0
   16.1215   -8.6897   17.1055 C   0  0  0  0  0  0  0  0  0  0  0  0
   15.2207   -7.9722   16.5897 O   0  0  0  0  0  0  0  0  0  0  0  0
   17.0318   -9.4202   16.2449 C   0  0  0  0  0  0  0  0  0  0  0  0
   17.8863  -10.3709   16.7929 C   0  0  0  0  0  0  0  0  0  0  0  0
   18.7604  -11.0702   15.9676 C   0  0  0  0  0  0  0  0  0  0  0  0
   18.7774  -10.8178   14.6000 C   0  0  0  0  0  0  0  0  0  0  0  0
   19.7456  -11.6019   13.7292 C   0  0  0  0  0  0  0  0  0  0  0  0
   17.9202   -9.8654   14.0576 C   0  0  0  0  0  0  0  0  0  0  0  0
   17.9133   -9.5732   12.6072 C   0  0  0  0  0  0  0  0  0  0  0  0
   17.2000  -10.3011   11.7394 C   0  0  0  0  0  0  0  0  0  0  0  0
   17.1865  -10.0332   10.3658 N   0  0  0  0  0  0  0  0  0  0  0  0
   16.1378  -10.2940    9.5338 C   0  0  0  0  0  0  0  0  0  0  0  0
   16.4842   -9.9150    8.3233 N   0  0  0  0  0  0  0  0  0  0  0  0
   17.7522   -9.4095    8.3715 C   0  0  0  0  0  0  0  0  0  0  0  0
   18.6342   -8.8708    7.4415 C   0  0  0  0  0  0  0  0  0  0  0  0
   18.2529   -8.7630    6.0986 N   0  0  0  0  0  0  0  0  0  0  0  0
   19.0227   -9.0643    4.8779 C   0  0  0  0  0  0  0  0  0  0  0  0
   20.2823   -8.2502    4.8039 C   0  0  0  0  0  0  0  0  0  0  0  0
   19.0988   -7.8821    3.9551 C   0  0  0  0  0  0  0  0  0  0  0  0
   19.8538   -8.4494    7.8117 N   0  0  0  0  0  0  0  0  0  0  0  0
   20.2677   -8.5307    9.0838 C   0  0  0  0  0  0  0  0  0  0  0  0
   19.4395   -9.0466   10.0032 N   0  0  0  0  0  0  0  0  0  0  0  0
   18.2148   -9.4735    9.6623 C   0  0  0  0  0  0  0  0  0  0  0  0
   17.0438   -9.1627   14.8780 C   0  0  0  0  0  0  0  0  0  0  0  0
   14.5421   -7.1905   19.2941 C   0  0  0  0  0  0  0  0  0  0  0  0
   14.1552   -6.1917   20.1810 C   0  0  0  0  0  0  0  0  0  0  0  0
   12.7914   -5.5385   20.0280 C   0  0  0  0  0  0  0  0  0  0  0  0
   12.8225   -4.2284   20.4742 F   0  0  0  0  0  0  0  0  0  0  0  0
   11.8632   -6.2448   20.7699 F   0  0  0  0  0  0  0  0  0  0  0  0
   12.3972   -5.5323   18.7010 F   0  0  0  0  0  0  0  0  0  0  0  0
   14.9954   -5.7769   21.2093 C   0  0  0  0  0  0  0  0  0  0  0  0
   16.7234   -5.5333   23.6031 C   0  0  0  0  0  0  0  0  0  0  0  0
   17.7869   -5.2379   24.3135 N   0  0  0  0  0  0  0  0  0  0  0  0
   20.3529   -4.9468   24.8858 H   0  0  0  0  0  0  0  0  0  0  0  0
   20.8040   -6.1692   23.9015 H   0  0  0  0  0  0  0  0  0  0  0  0
   20.7594   -4.6384   23.3346 H   0  0  0  0  0  0  0  0  0  0  0  0
   19.0375   -6.2198   21.5476 H   0  0  0  0  0  0  0  0  0  0  0  0
   17.5519   -7.8074   20.5706 H   0  0  0  0  0  0  0  0  0  0  0  0
   16.5617   -9.6627   18.9175 H   0  0  0  0  0  0  0  0  0  0  0  0
   17.8721  -10.5510   17.7765 H   0  0  0  0  0  0  0  0  0  0  0  0
   19.3768  -11.7543   16.3575 H   0  0  0  0  0  0  0  0  0  0  0  0
   19.6447  -11.3149   12.7766 H   0  0  0  0  0  0  0  0  0  0  0  0
   20.6825  -11.4279   14.0324 H   0  0  0  0  0  0  0  0  0  0  0  0
   19.5466  -12.5789   13.8059 H   0  0  0  0  0  0  0  0  0  0  0  0
   18.4585   -8.8082   12.2645 H   0  0  0  0  0  0  0  0  0  0  0  0
   16.6561  -11.0654   12.0858 H   0  0  0  0  0  0  0  0  0  0  0  0
   15.2628  -10.7004    9.7970 H   0  0  0  0  0  0  0  0  0  0  0  0
   17.3214   -8.4331    5.9449 H   0  0  0  0  0  0  0  0  0  0  0  0
   19.0075   -9.9892    4.4980 H   0  0  0  0  0  0  0  0  0  0  0  0
   21.1020   -8.6347    4.3793 H   0  0  0  0  0  0  0  0  0  0  0  0
   20.5470   -7.6677    5.5724 H   0  0  0  0  0  0  0  0  0  0  0  0
   19.1307   -8.0214    2.9654 H   0  0  0  0  0  0  0  0  0  0  0  0
   18.5757   -7.0545    4.1585 H   0  0  0  0  0  0  0  0  0  0  0  0
   21.1794   -8.2118    9.3430 H   0  0  0  0  0  0  0  0  0  0  0  0
   16.4277   -8.4782   14.4885 H   0  0  0  0  0  0  0  0  0  0  0  0
   13.9310   -7.4819   18.5581 H   0  0  0  0  0  0  0  0  0  0  0  0
   14.7085   -5.0579   21.8424 H   0  0  0  0  0  0  0  0  0  0  0  0
   15.7786   -5.4467   23.9192 H   0  0  0  0  0  0  0  0  0  0  0  0
  1  2  1  0  0  0  0
  2  3  2  0  0  0  0
  3  4  1  0  0  0  0
  4  5  1  0  0  0  0
  5  6  2  0  0  0  0
  6  7  1  0  0  0  0
  7  8  1  0  0  0  0
  8  9  1  0  0  0  0
  9 10  2  0  0  0  0
  9 11  1  0  0  0  0
 11 12  2  0  0  0  0
 12 13  1  0  0  0  0
 13 14  2  0  0  0  0
 14 15  1  0  0  0  0
 14 16  1  0  0  0  0
 16 17  1  0  0  0  0
 17 18  2  0  0  0  0
 18 19  1  0  0  0  0
 19 20  1  0  0  0  0
 20 21  2  0  0  0  0
 21 22  1  0  0  0  0
 22 23  2  0  0  0  0
 23 24  1  0  0  0  0
 24 25  1  0  0  0  0
 25 26  1  0  0  0  0
 26 27  1  0  0  0  0
 23 28  1  0  0  0  0
 28 29  2  0  0  0  0
 29 30  1  0  0  0  0
 30 31  2  0  0  0  0
 16 32  2  0  0  0  0
  7 33  2  0  0  0  0
 33 34  1  0  0  0  0
 34 35  1  0  0  0  0
 35 36  1  0  0  0  0
 35 37  1  0  0  0  0
 35 38  1  0  0  0  0
 34 39  2  0  0  0  0
  4 40  1  0  0  0  0
 40 41  2  0  0  0  0
 41  2  1  0  0  0  0
 39  5  1  0  0  0  0
 32 11  1  0  0  0  0
 31 19  1  0  0  0  0
 31 22  1  0  0  0  0
 27 25  1  0  0  0  0
  1 42  1  0  0  0  0
  1 43  1  0  0  0  0
  1 44  1  0  0  0  0
  3 45  1  0  0  0  0
  6 46  1  0  0  0  0
  8 47  1  0  0  0  0
 12 48  1  0  0  0  0
 13 49  1  0  0  0  0
 15 50  1  0  0  0  0
 15 51  1  0  0  0  0
 15 52  1  0  0  0  0
 17 53  1  0  0  0  0
 18 54  1  0  0  0  0
 20 55  1  0  0  0  0
 24 56  1  0  0  0  0
 25 57  1  0  0  0  0
 26 58  1  0  0  0  0
 26 59  1  0  0  0  0
 27 60  1  0  0  0  0
 27 61  1  0  0  0  0
 29 62  1  0  0  0  0
 32 63  1  0  0  0  0
 33 64  1  0  0  0  0
 39 65  1  0  0  0  0
 40 66  1  0  0  0  0
M  END
> <BIOSOLVEIT.HYDE_ESTIMATED_AFFINITY_LOWER_BOUNDARY [nM]>
0.028160

> <BIOSOLVEIT.HYDE_ESTIMATED_AFFINITY_UPPER_BOUNDARY [nM]>
2.797839

> <BIOSOLVEIT.HYDE_LIGAND_EFFICIENCY range: ++, +, 0, -, -->
0

> <BIOSOLVEIT.HYDE_LIGAND_LIPOPHILIC_EFFICIENCY range: ++, +, 0, -, -->
-

> <BIOSOLVEIT.INTER_CLASH range: red, yellow, green>
green

> <BIOSOLVEIT.INTRA_CLASH range: red, yellow, green>
green

> <BIOSOLVEIT.LOGP>
6.10214

> <BIOSOLVEIT.MOLECULAR WEIGHT>
558.565

> <BIOSOLVEIT.MOLECULE_CHECKSUM>
LTU0LjUyMTY7MS4zMjk4

> <BIOSOLVEIT.TORSION_QUALITY range: red, yellow, green, not rotatable>
red

> <BIOSOLVEIT.TPSA>
102.55

$$$$
3KFA_B91_2
foHydescor03222115303D 1   1.00000     0.00000     0
Hydescorer 1.1.0 fol007
 66 71  0  0  0  0            999 V2000
   17.7524   -4.9839   25.8189 C   0  0  0  0  0  0  0  0  0  0  0  0
   17.7055   -5.5012   24.3899 C   0  0  0  0  0  0  0  0  0  0  0  0
   16.5756   -5.6739   23.6522 C   0  0  0  0  0  0  0  0  0  0  0  0
   16.9854   -6.1474   22.4438 N   0  0  0  0  0  0  0  0  0  0  0  0
   16.1598   -6.4732   21.3616 C   0  0  0  0  0  0  0  0  0  0  0  0
   16.5660   -7.4612   20.4715 C   0  0  0  0  0  0  0  0  0  0  0  0
   15.7388   -7.7796   19.3992 C   0  0  0  0  0  0  0  0  0  0  0  0
   16.1415   -8.7996   18.4685 N   0  0  0  0  0  0  0  0  0  0  0  0
   15.9557   -8.6997   17.0464 C   0  0  0  0  0  0  0  0  0  0  0  0
   14.9818   -8.0406   16.5888 O   0  0  0  0  0  0  0  0  0  0  0  0
   16.8446   -9.3876   16.1303 C   0  0  0  0  0  0  0  0  0  0  0  0
   17.9122  -10.1265   16.6288 C   0  0  0  0  0  0  0  0  0  0  0  0
   18.7658  -10.7849   15.7500 C   0  0  0  0  0  0  0  0  0  0  0  0
   18.5496  -10.7031   14.3786 C   0  0  0  0  0  0  0  0  0  0  0  0
   19.5026  -11.4365   13.4487 C   0  0  0  0  0  0  0  0  0  0  0  0
   17.4799   -9.9623   13.8856 C   0  0  0  0  0  0  0  0  0  0  0  0
   17.2224   -9.8551   12.4327 C   0  0  0  0  0  0  0  0  0  0  0  0
   18.2079   -9.6522   11.5498 C   0  0  0  0  0  0  0  0  0  0  0  0
   17.9751   -9.5493   10.1735 N   0  0  0  0  0  0  0  0  0  0  0  0
   16.8771  -10.0427    9.5325 C   0  0  0  0  0  0  0  0  0  0  0  0
   17.0019   -9.7634    8.2536 N   0  0  0  0  0  0  0  0  0  0  0  0
   18.1761   -9.0906    8.0675 C   0  0  0  0  0  0  0  0  0  0  0  0
   18.8388   -8.5500    6.9714 C   0  0  0  0  0  0  0  0  0  0  0  0
   18.2734   -8.6504    5.6944 N   0  0  0  0  0  0  0  0  0  0  0  0
   18.8991   -9.0490    4.4202 C   0  0  0  0  0  0  0  0  0  0  0  0
   20.2282   -8.3786    4.2239 C   0  0  0  0  0  0  0  0  0  0  0  0
   19.0233   -7.8935    3.4694 C   0  0  0  0  0  0  0  0  0  0  0  0
   20.0200   -7.9292    7.1174 N   0  0  0  0  0  0  0  0  0  0  0  0
   20.6042   -7.8066    8.3174 C   0  0  0  0  0  0  0  0  0  0  0  0
   19.9894   -8.3187    9.3929 N   0  0  0  0  0  0  0  0  0  0  0  0
   18.8078   -8.9422    9.2770 C   0  0  0  0  0  0  0  0  0  0  0  0
   16.6229   -9.3014   14.7598 C   0  0  0  0  0  0  0  0  0  0  0  0
   14.5250   -7.1275   19.2088 C   0  0  0  0  0  0  0  0  0  0  0  0
   14.1431   -6.1427   20.1135 C   0  0  0  0  0  0  0  0  0  0  0  0
   12.8205   -5.4189   19.9216 C   0  0  0  0  0  0  0  0  0  0  0  0
   12.8916   -4.1284   20.4174 F   0  0  0  0  0  0  0  0  0  0  0  0
   11.8253   -6.1048   20.5926 F   0  0  0  0  0  0  0  0  0  0  0  0
   12.4916   -5.3469   18.5789 F   0  0  0  0  0  0  0  0  0  0  0  0
   14.9512   -5.8058   21.1945 C   0  0  0  0  0  0  0  0  0  0  0  0
   18.3443   -6.2481   22.4764 C   0  0  0  0  0  0  0  0  0  0  0  0
   18.7911   -5.8601   23.6480 N   0  0  0  0  0  0  0  0  0  0  0  0
   18.7020   -4.9512   26.1307 H   0  0  0  0  0  0  0  0  0  0  0  0
   17.3582   -4.0655   25.8541 H   0  0  0  0  0  0  0  0  0  0  0  0
   17.2278   -5.5948   26.4120 H   0  0  0  0  0  0  0  0  0  0  0  0
   15.6355   -5.4904   23.9394 H   0  0  0  0  0  0  0  0  0  0  0  0
   17.4374   -7.9346   20.6000 H   0  0  0  0  0  0  0  0  0  0  0  0
   16.5750   -9.6247   18.8310 H   0  0  0  0  0  0  0  0  0  0  0  0
   18.0656  -10.1842   17.6153 H   0  0  0  0  0  0  0  0  0  0  0  0
   19.5348  -11.3170   16.1042 H   0  0  0  0  0  0  0  0  0  0  0  0
   19.2236  -11.2871   12.5002 H   0  0  0  0  0  0  0  0  0  0  0  0
   20.4310  -11.0895   13.5818 H   0  0  0  0  0  0  0  0  0  0  0  0
   19.4800  -12.4152   13.6526 H   0  0  0  0  0  0  0  0  0  0  0  0
   16.2829   -9.9368   12.0998 H   0  0  0  0  0  0  0  0  0  0  0  0
   19.1460   -9.5709   11.8864 H   0  0  0  0  0  0  0  0  0  0  0  0
   16.1144  -10.5294    9.9584 H   0  0  0  0  0  0  0  0  0  0  0  0
   17.3024   -8.4176    5.6383 H   0  0  0  0  0  0  0  0  0  0  0  0
   18.7515   -9.9712    4.0628 H   0  0  0  0  0  0  0  0  0  0  0  0
   20.9622   -8.8556    3.7405 H   0  0  0  0  0  0  0  0  0  0  0  0
   20.6190   -7.8194    4.9550 H   0  0  0  0  0  0  0  0  0  0  0  0
   18.9552   -8.0475    2.4837 H   0  0  0  0  0  0  0  0  0  0  0  0
   18.6119   -7.0112    3.6982 H   0  0  0  0  0  0  0  0  0  0  0  0
   21.4843   -7.3407    8.4090 H   0  0  0  0  0  0  0  0  0  0  0  0
   15.8541   -8.7690   14.4058 H   0  0  0  0  0  0  0  0  0  0  0  0
   13.9372   -7.3628   18.4348 H   0  0  0  0  0  0  0  0  0  0  0  0
   14.6681   -5.0964   21.8400 H   0  0  0  0  0  0  0  0  0  0  0  0
   18.9152   -6.5695   21.7209 H   0  0  0  0  0  0  0  0  0  0  0  0
  1  2  1  0  0  0  0
  2  3  2  0  0  0  0
  3  4  1  0  0  0  0
  4  5  1  0  0  0  0
  5  6  2  0  0  0  0
  6  7  1  0  0  0  0
  7  8  1  0  0  0  0
  8  9  1  0  0  0  0
  9 10  2  0  0  0  0
  9 11  1  0  0  0  0
 11 12  2  0  0  0  0
 12 13  1  0  0  0  0
 13 14  2  0  0  0  0
 14 15  1  0  0  0  0
 14 16  1  0  0  0  0
 16 17  1  0  0  0  0
 17 18  2  0  0  0  0
 18 19  1  0  0  0  0
 19 20  1  0  0  0  0
 20 21  2  0  0  0  0
 21 22  1  0  0  0  0
 22 23  2  0  0  0  0
 23 24  1  0  0  0  0
 24 25  1  0  0  0  0
 25 26  1  0  0  0  0
 26 27  1  0  0  0  0
 23 28  1  0  0  0  0
 28 29  2  0  0  0  0
 29 30  1  0  0  0  0
 30 31  2  0  0  0  0
 16 32  2  0  0  0  0
  7 33  2  0  0  0  0
 33 34  1  0  0  0  0
 34 35  1  0  0  0  0
 35 36  1  0  0  0  0
 35 37  1  0  0  0  0
 35 38  1  0  0  0  0
 34 39  2  0  0  0  0
  4 40  1  0  0  0  0
 40 41  2  0  0  0  0
 41  2  1  0  0  0  0
 39  5  1  0  0  0  0
 32 11  1  0  0  0  0
 31 19  1  0  0  0  0
 31 22  1  0  0  0  0
 27 25  1  0  0  0  0
  1 42  1  0  0  0  0
  1 43  1  0  0  0  0
  1 44  1  0  0  0  0
  3 45  1  0  0  0  0
  6 46  1  0  0  0  0
  8 47  1  0  0  0  0
 12 48  1  0  0  0  0
 13 49  1  0  0  0  0
 15 50  1  0  0  0  0
 15 51  1  0  0  0  0
 15 52  1  0  0  0  0
 17 53  1  0  0  0  0
 18 54  1  0  0  0  0
 20 55  1  0  0  0  0
 24 56  1  0  0  0  0
 25 57  1  0  0  0  0
 26 58  1  0  0  0  0
 26 59  1  0  0  0  0
 27 60  1  0  0  0  0
 27 61  1  0  0  0  0
 29 62  1  0  0  0  0
 32 63  1  0  0  0  0
 33 64  1  0  0  0  0
 39 65  1  0  0  0  0
 40 66  1  0  0  0  0
M  END
> <BIOSOLVEIT.HYDE_ESTIMATED_AFFINITY_LOWER_BOUNDARY [nM]>
0.371871

> <BIOSOLVEIT.HYDE_ESTIMATED_AFFINITY_UPPER_BOUNDARY [nM]>
36.947590

> <BIOSOLVEIT.HYDE_LIGAND_EFFICIENCY range: ++, +, 0, -, -->
-

> <BIOSOLVEIT.HYDE_LIGAND_LIPOPHILIC_EFFICIENCY range: ++, +, 0, -, -->
-

> <BIOSOLVEIT.INTER_CLASH range: red, yellow, green>
green

> <BIOSOLVEIT.INTRA_CLASH range: red, yellow, green>
yellow

> <BIOSOLVEIT.LOGP>
6.10214

> <BIOSOLVEIT.MOLECULAR WEIGHT>
558.565

> <BIOSOLVEIT.MOLECULE_CHECKSUM>
LTQ4LjEyNDM7MS4xNzM3Ng==

> <BIOSOLVEIT.TORSION_QUALITY range: red, yellow, green, not rotatable>
red

> <BIOSOLVEIT.TPSA>
102.55

$$$$
3KFA_B91_3
foHydescor03222115303D 1   1.00000     0.00000     0
Hydescorer 1.1.0 fol007
 66 71  0  0  0  0            999 V2000
   20.4180   -5.2830   23.9134 C   0  0  0  0  0  0  0  0  0  0  0  0
   18.9625   -5.4822   23.5215 C   0  0  0  0  0  0  0  0  0  0  0  0
   18.5276   -5.9435   22.3180 C   0  0  0  0  0  0  0  0  0  0  0  0
   17.1689   -5.9683   22.3945 N   0  0  0  0  0  0  0  0  0  0  0  0
   16.2922   -6.3741   21.3817 C   0  0  0  0  0  0  0  0  0  0  0  0
   16.6861   -7.3800   20.5061 C   0  0  0  0  0  0  0  0  0  0  0  0
   15.8082   -7.7778   19.5027 C   0  0  0  0  0  0  0  0  0  0  0  0
   16.1974   -8.8174   18.5880 N   0  0  0  0  0  0  0  0  0  0  0  0
   16.0461   -8.7221   17.1616 C   0  0  0  0  0  0  0  0  0  0  0  0
   15.1047   -8.0349   16.6782 O   0  0  0  0  0  0  0  0  0  0  0  0
   16.9319   -9.4455   16.2700 C   0  0  0  0  0  0  0  0  0  0  0  0
   17.7643  -10.4366   16.7788 C   0  0  0  0  0  0  0  0  0  0  0  0
   18.6150  -11.1292   15.9238 C   0  0  0  0  0  0  0  0  0  0  0  0
   18.6306  -10.8297   14.5657 C   0  0  0  0  0  0  0  0  0  0  0  0
   19.5728  -11.6079   13.6617 C   0  0  0  0  0  0  0  0  0  0  0  0
   17.7955   -9.8370   14.0625 C   0  0  0  0  0  0  0  0  0  0  0  0
   17.7879   -9.4942   12.6232 C   0  0  0  0  0  0  0  0  0  0  0  0
   17.2137  -10.2845   11.7080 C   0  0  0  0  0  0  0  0  0  0  0  0
   17.2009   -9.9697   10.3444 N   0  0  0  0  0  0  0  0  0  0  0  0
   16.1429  -10.1772    9.5092 C   0  0  0  0  0  0  0  0  0  0  0  0
   16.4932   -9.7653    8.3106 N   0  0  0  0  0  0  0  0  0  0  0  0
   17.7730   -9.2916    8.3697 C   0  0  0  0  0  0  0  0  0  0  0  0
   18.6636   -8.7423    7.4542 C   0  0  0  0  0  0  0  0  0  0  0  0
   18.2794   -8.5798    6.1176 N   0  0  0  0  0  0  0  0  0  0  0  0
   19.0391   -8.0203    4.9847 C   0  0  0  0  0  0  0  0  0  0  0  0
   18.8225   -8.8140    3.7287 C   0  0  0  0  0  0  0  0  0  0  0  0
   20.1025   -8.9636    4.5005 C   0  0  0  0  0  0  0  0  0  0  0  0
   19.8943   -8.3626    7.8326 N   0  0  0  0  0  0  0  0  0  0  0  0
   20.3114   -8.4970    9.0991 C   0  0  0  0  0  0  0  0  0  0  0  0
   19.4751   -9.0243   10.0044 N   0  0  0  0  0  0  0  0  0  0  0  0
   18.2393   -9.4104    9.6553 C   0  0  0  0  0  0  0  0  0  0  0  0
   16.9427   -9.1408   14.9128 C   0  0  0  0  0  0  0  0  0  0  0  0
   14.5563   -7.1871   19.3665 C   0  0  0  0  0  0  0  0  0  0  0  0
   14.1878   -6.1829   20.2552 C   0  0  0  0  0  0  0  0  0  0  0  0
   12.8240   -5.5253   20.1217 C   0  0  0  0  0  0  0  0  0  0  0  0
   12.8673   -4.2134   20.5616 F   0  0  0  0  0  0  0  0  0  0  0  0
   11.9056   -6.2249   20.8820 F   0  0  0  0  0  0  0  0  0  0  0  0
   12.4081   -5.5234   18.8015 F   0  0  0  0  0  0  0  0  0  0  0  0
   15.0463   -5.7669   21.2676 C   0  0  0  0  0  0  0  0  0  0  0  0
   16.8147   -5.5265   23.6342 C   0  0  0  0  0  0  0  0  0  0  0  0
   17.8907   -5.2295   24.3248 N   0  0  0  0  0  0  0  0  0  0  0  0
   20.4666   -4.9350   24.8496 H   0  0  0  0  0  0  0  0  0  0  0  0
   20.9010   -6.1568   23.8571 H   0  0  0  0  0  0  0  0  0  0  0  0
   20.8438   -4.6261   23.2911 H   0  0  0  0  0  0  0  0  0  0  0  0
   19.0913   -6.2102   21.5362 H   0  0  0  0  0  0  0  0  0  0  0  0
   17.5845   -7.8098   20.5960 H   0  0  0  0  0  0  0  0  0  0  0  0
   16.5957   -9.6534   18.9656 H   0  0  0  0  0  0  0  0  0  0  0  0
   17.7513  -10.6505   17.7555 H   0  0  0  0  0  0  0  0  0  0  0  0
   19.2153  -11.8424   16.2856 H   0  0  0  0  0  0  0  0  0  0  0  0
   19.4739  -11.2852   12.7204 H   0  0  0  0  0  0  0  0  0  0  0  0
   20.5157  -11.4690   13.9644 H   0  0  0  0  0  0  0  0  0  0  0  0
   19.3487  -12.5814   13.7057 H   0  0  0  0  0  0  0  0  0  0  0  0
   18.2251   -8.6458   12.3249 H   0  0  0  0  0  0  0  0  0  0  0  0
   16.7773  -11.1321   12.0101 H   0  0  0  0  0  0  0  0  0  0  0  0
   15.2597  -10.5716    9.7626 H   0  0  0  0  0  0  0  0  0  0  0  0
   17.3536   -8.8887    5.8995 H   0  0  0  0  0  0  0  0  0  0  0  0
   19.1888   -7.0333    4.9275 H   0  0  0  0  0  0  0  0  0  0  0  0
   18.8250   -8.3548    2.8404 H   0  0  0  0  0  0  0  0  0  0  0  0
   18.1558   -9.5592    3.7169 H   0  0  0  0  0  0  0  0  0  0  0  0
   20.9572   -8.6040    4.1261 H   0  0  0  0  0  0  0  0  0  0  0  0
   20.2880   -9.8083    5.0026 H   0  0  0  0  0  0  0  0  0  0  0  0
   21.2313   -8.2086    9.3646 H   0  0  0  0  0  0  0  0  0  0  0  0
   16.3424   -8.4273   14.5514 H   0  0  0  0  0  0  0  0  0  0  0  0
   13.9320   -7.4794   18.6420 H   0  0  0  0  0  0  0  0  0  0  0  0
   14.7724   -5.0442   21.9022 H   0  0  0  0  0  0  0  0  0  0  0  0
   15.8758   -5.4414   23.9678 H   0  0  0  0  0  0  0  0  0  0  0  0
  1  2  1  0  0  0  0
  2  3  2  0  0  0  0
  3  4  1  0  0  0  0
  4  5  1  0  0  0  0
  5  6  2  0  0  0  0
  6  7  1  0  0  0  0
  7  8  1  0  0  0  0
  8  9  1  0  0  0  0
  9 10  2  0  0  0  0
  9 11  1  0  0  0  0
 11 12  2  0  0  0  0
 12 13  1  0  0  0  0
 13 14  2  0  0  0  0
 14 15  1  0  0  0  0
 14 16  1  0  0  0  0
 16 17  1  0  0  0  0
 17 18  2  0  0  0  0
 18 19  1  0  0  0  0
 19 20  1  0  0  0  0
 20 21  2  0  0  0  0
 21 22  1  0  0  0  0
 22 23  2  0  0  0  0
 23 24  1  0  0  0  0
 24 25  1  0  0  0  0
 25 26  1  0  0  0  0
 26 27  1  0  0  0  0
 23 28  1  0  0  0  0
 28 29  2  0  0  0  0
 29 30  1  0  0  0  0
 30 31  2  0  0  0  0
 16 32  2  0  0  0  0
  7 33  2  0  0  0  0
 33 34  1  0  0  0  0
 34 35  1  0  0  0  0
 35 36  1  0  0  0  0
 35 37  1  0  0  0  0
 35 38  1  0  0  0  0
 34 39  2  0  0  0  0
  4 40  1  0  0  0  0
 40 41  2  0  0  0  0
 41  2  1  0  0  0  0
 39  5  1  0  0  0  0
 32 11  1  0  0  0  0
 31 19  1  0  0  0  0
 31 22  1  0  0  0  0
 27 25  1  0  0  0  0
  1 42  1  0  0  0  0
  1 43  1  0  0  0  0
  1 44  1  0  0  0  0
  3 45  1  0  0  0  0
  6 46  1  0  0  0  0
  8 47  1  0  0  0  0
 12 48  1  0  0  0  0
 13 49  1  0  0  0  0
 15 50  1  0  0  0  0
 15 51  1  0  0  0  0
 15 52  1  0  0  0  0
 17 53  1  0  0  0  0
 18 54  1  0  0  0  0
 20 55  1  0  0  0  0
 24 56  1  0  0  0  0
 25 57  1  0  0  0  0
 26 58  1  0  0  0  0
 26 59  1  0  0  0  0
 27 60  1  0  0  0  0
 27 61  1  0  0  0  0
 29 62  1  0  0  0  0
 32 63  1  0  0  0  0
 33 64  1  0  0  0  0
 39 65  1  0  0  0  0
 40 66  1  0  0  0  0
M  END
> <BIOSOLVEIT.HYDE_ESTIMATED_AFFINITY_LOWER_BOUNDARY [nM]>
0.009131

> <BIOSOLVEIT.HYDE_ESTIMATED_AFFINITY_UPPER_BOUNDARY [nM]>
0.907206

> <BIOSOLVEIT.HYDE_LIGAND_EFFICIENCY range: ++, +, 0, -, -->
0

> <BIOSOLVEIT.HYDE_LIGAND_LIPOPHILIC_EFFICIENCY range: ++, +, 0, -, -->
0

> <BIOSOLVEIT.INTER_CLASH range: red, yellow, green>
green

> <BIOSOLVEIT.INTRA_CLASH range: red, yellow, green>
green

> <BIOSOLVEIT.LOGP>
6.10214

> <BIOSOLVEIT.MOLECULAR WEIGHT>
558.565

> <BIOSOLVEIT.MOLECULE_CHECKSUM>
LTU3LjMxMzU7MS4zOTc4OQ==

> <BIOSOLVEIT.TORSION_QUALITY range: red, yellow, green, not rotatable>
yellow

> <BIOSOLVEIT.TPSA>
102.55

$$$$
