1FPU_PRC_1
foHydescor03192112273D 1   1.00000     0.00000     0
Hydescorer 1.1.0 fol007
 47 50  0  0  0  0            999 V2000
   21.0587   11.7876   56.4632 C   0  0  0  0  0  0  0  0  0  0  0  0
   20.1682   12.8997   55.9332 C   0  0  0  0  0  0  0  0  0  0  0  0
   18.8698   12.5886   55.5432 C   0  0  0  0  0  0  0  0  0  0  0  0
   18.0323   13.5865   55.0547 C   0  0  0  0  0  0  0  0  0  0  0  0
   18.5073   14.8905   54.9621 C   0  0  0  0  0  0  0  0  0  0  0  0
   17.6727   15.9021   54.4717 N   0  0  0  0  0  0  0  0  0  0  0  0
   16.3956   15.6511   53.8684 C   0  0  0  0  0  0  0  0  0  0  0  0
   15.4987   15.0729   54.5409 O   0  0  0  0  0  0  0  0  0  0  0  0
   16.1205   16.0659   52.4715 C   0  0  0  0  0  0  0  0  0  0  0  0
   15.5371   17.3049   52.2285 C   0  0  0  0  0  0  0  0  0  0  0  0
   15.2815   17.6906   50.9173 C   0  0  0  0  0  0  0  0  0  0  0  0
   15.6196   16.8200   49.8866 C   0  0  0  0  0  0  0  0  0  0  0  0
   16.1814   15.6300   50.1464 N   0  0  0  0  0  0  0  0  0  0  0  0
   16.4383   15.2348   51.4024 C   0  0  0  0  0  0  0  0  0  0  0  0
   19.8044   15.2095   55.3501 C   0  0  0  0  0  0  0  0  0  0  0  0
   20.6364   14.2066   55.8376 C   0  0  0  0  0  0  0  0  0  0  0  0
   21.9838   14.5213   56.2441 N   0  0  0  0  0  0  0  0  0  0  0  0
   22.2940   15.4351   57.2595 C   0  0  0  0  0  0  0  0  0  0  0  0
   21.5424   15.4493   58.3701 N   0  0  0  0  0  0  0  0  0  0  0  0
   21.7928   16.3023   59.3742 C   0  0  0  0  0  0  0  0  0  0  0  0
   22.8546   17.1944   59.2671 C   0  0  0  0  0  0  0  0  0  0  0  0
   23.6283   17.1725   58.1118 C   0  0  0  0  0  0  0  0  0  0  0  0
   24.7385   18.1005   57.9919 C   0  0  0  0  0  0  0  0  0  0  0  0
   25.0512   18.9342   59.0603 C   0  0  0  0  0  0  0  0  0  0  0  0
   26.1158   19.8209   58.9420 C   0  0  0  0  0  0  0  0  0  0  0  0
   26.8363   19.8450   57.7525 C   0  0  0  0  0  0  0  0  0  0  0  0
   26.5153   19.0310   56.7359 N   0  0  0  0  0  0  0  0  0  0  0  0
   25.4932   18.1667   56.8253 C   0  0  0  0  0  0  0  0  0  0  0  0
   23.3216   16.2920   57.1451 N   0  0  0  0  0  0  0  0  0  0  0  0
   21.9547   12.1626   56.7007 H   0  0  0  0  0  0  0  0  0  0  0  0
   20.6398   11.3844   57.2769 H   0  0  0  0  0  0  0  0  0  0  0  0
   21.1672   11.0841   55.7608 H   0  0  0  0  0  0  0  0  0  0  0  0
   18.5383   11.6479   55.6139 H   0  0  0  0  0  0  0  0  0  0  0  0
   17.0980   13.3682   54.7729 H   0  0  0  0  0  0  0  0  0  0  0  0
   17.9832   16.8497   54.5461 H   0  0  0  0  0  0  0  0  0  0  0  0
   15.3040   17.9116   52.9884 H   0  0  0  0  0  0  0  0  0  0  0  0
   14.8628   18.5768   50.7191 H   0  0  0  0  0  0  0  0  0  0  0  0
   15.4414   17.0849   48.9390 H   0  0  0  0  0  0  0  0  0  0  0  0
   16.8583   14.3429   51.5700 H   0  0  0  0  0  0  0  0  0  0  0  0
   20.1357   16.1504   55.2795 H   0  0  0  0  0  0  0  0  0  0  0  0
   22.7382   14.0618   55.7753 H   0  0  0  0  0  0  0  0  0  0  0  0
   21.2202   16.2971   60.1940 H   0  0  0  0  0  0  0  0  0  0  0  0
   23.0573   17.8379   60.0053 H   0  0  0  0  0  0  0  0  0  0  0  0
   24.5164   18.8964   59.9044 H   0  0  0  0  0  0  0  0  0  0  0  0
   26.3586   20.4295   59.6974 H   0  0  0  0  0  0  0  0  0  0  0  0
   27.6043   20.4779   57.6539 H   0  0  0  0  0  0  0  0  0  0  0  0
   25.2740   17.5700   56.0533 H   0  0  0  0  0  0  0  0  0  0  0  0
  1  2  1  0  0  0  0
  2  3  2  0  0  0  0
  3  4  1  0  0  0  0
  4  5  2  0  0  0  0
  5  6  1  0  0  0  0
  6  7  1  0  0  0  0
  7  8  2  0  0  0  0
  7  9  1  0  0  0  0
  9 10  2  0  0  0  0
 10 11  1  0  0  0  0
 11 12  2  0  0  0  0
 12 13  1  0  0  0  0
 13 14  2  0  0  0  0
  5 15  1  0  0  0  0
 15 16  2  0  0  0  0
 16 17  1  0  0  0  0
 17 18  1  0  0  0  0
 18 19  2  0  0  0  0
 19 20  1  0  0  0  0
 20 21  2  0  0  0  0
 21 22  1  0  0  0  0
 22 23  1  0  0  0  0
 23 24  2  0  0  0  0
 24 25  1  0  0  0  0
 25 26  2  0  0  0  0
 26 27  1  0  0  0  0
 27 28  2  0  0  0  0
 22 29  2  0  0  0  0
 16  2  1  0  0  0  0
 29 18  1  0  0  0  0
 14  9  1  0  0  0  0
 28 23  1  0  0  0  0
  1 30  1  0  0  0  0
  1 31  1  0  0  0  0
  1 32  1  0  0  0  0
  3 33  1  0  0  0  0
  4 34  1  0  0  0  0
  6 35  1  0  0  0  0
 10 36  1  0  0  0  0
 11 37  1  0  0  0  0
 12 38  1  0  0  0  0
 14 39  1  0  0  0  0
 15 40  1  0  0  0  0
 17 41  1  0  0  0  0
 20 42  1  0  0  0  0
 21 43  1  0  0  0  0
 24 44  1  0  0  0  0
 25 45  1  0  0  0  0
 26 46  1  0  0  0  0
 28 47  1  0  0  0  0
M  END
> <BIOSOLVEIT.HYDE_ESTIMATED_AFFINITY_LOWER_BOUNDARY [nM]>
46.842810

> <BIOSOLVEIT.HYDE_ESTIMATED_AFFINITY_UPPER_BOUNDARY [nM]>
4654.110096

> <BIOSOLVEIT.HYDE_LIGAND_EFFICIENCY range: ++, +, 0, -, -->
-

> <BIOSOLVEIT.HYDE_LIGAND_LIPOPHILIC_EFFICIENCY range: ++, +, 0, -, -->
-

> <BIOSOLVEIT.INTER_CLASH range: red, yellow, green>
green

> <BIOSOLVEIT.INTRA_CLASH range: red, yellow, green>
green

> <BIOSOLVEIT.LOGP>
4.23792

> <BIOSOLVEIT.MOLECULAR WEIGHT>
382.425

> <BIOSOLVEIT.MOLECULE_CHECKSUM>
LTM2LjEzNjsxLjI0NjA3

> <BIOSOLVEIT.TORSION_QUALITY range: red, yellow, green, not rotatable>
red

> <BIOSOLVEIT.TPSA>
92.69

$$$$
1FPU_PRC_2
foHydescor03192112273D 1   1.00000     0.00000     0
Hydescorer 1.1.0 fol007
 47 50  0  0  0  0            999 V2000
   21.5891   12.1882   56.3154 C   0  0  0  0  0  0  0  0  0  0  0  0
   20.3672   13.0159   55.9511 C   0  0  0  0  0  0  0  0  0  0  0  0
   19.1349   12.3794   55.8469 C   0  0  0  0  0  0  0  0  0  0  0  0
   17.9996   13.1120   55.5153 C   0  0  0  0  0  0  0  0  0  0  0  0
   18.1121   14.4803   55.2912 C   0  0  0  0  0  0  0  0  0  0  0  0
   16.9758   15.2266   54.9568 N   0  0  0  0  0  0  0  0  0  0  0  0
   16.0983   14.8896   53.8732 C   0  0  0  0  0  0  0  0  0  0  0  0
   15.5096   13.7739   53.8804 O   0  0  0  0  0  0  0  0  0  0  0  0
   15.8752   15.8359   52.7535 C   0  0  0  0  0  0  0  0  0  0  0  0
   16.4332   15.5658   51.5084 C   0  0  0  0  0  0  0  0  0  0  0  0
   16.2209   16.4552   50.4609 C   0  0  0  0  0  0  0  0  0  0  0  0
   15.4536   17.5915   50.6941 C   0  0  0  0  0  0  0  0  0  0  0  0
   14.9260   17.8302   51.9039 N   0  0  0  0  0  0  0  0  0  0  0  0
   15.1158   16.9878   52.9306 C   0  0  0  0  0  0  0  0  0  0  0  0
   19.3411   15.1240   55.3937 C   0  0  0  0  0  0  0  0  0  0  0  0
   20.4722   14.3849   55.7255 C   0  0  0  0  0  0  0  0  0  0  0  0
   21.7535   15.0377   55.8358 N   0  0  0  0  0  0  0  0  0  0  0  0
   22.1625   15.7571   56.9659 C   0  0  0  0  0  0  0  0  0  0  0  0
   21.4708   15.6197   58.1066 N   0  0  0  0  0  0  0  0  0  0  0  0
   21.8163   16.2837   59.2193 C   0  0  0  0  0  0  0  0  0  0  0  0
   22.9162   17.1351   59.1960 C   0  0  0  0  0  0  0  0  0  0  0  0
   23.6271   17.2712   58.0086 C   0  0  0  0  0  0  0  0  0  0  0  0
   24.7763   18.1582   57.9756 C   0  0  0  0  0  0  0  0  0  0  0  0
   25.1020   18.8978   59.1076 C   0  0  0  0  0  0  0  0  0  0  0  0
   26.2037   19.7453   59.0723 C   0  0  0  0  0  0  0  0  0  0  0  0
   26.9475   19.8259   57.8997 C   0  0  0  0  0  0  0  0  0  0  0  0
   26.6133   19.1026   56.8207 N   0  0  0  0  0  0  0  0  0  0  0  0
   25.5555   18.2776   56.8295 C   0  0  0  0  0  0  0  0  0  0  0  0
   23.2258   16.5765   56.9316 N   0  0  0  0  0  0  0  0  0  0  0  0
   22.3940   12.7803   56.3520 H   0  0  0  0  0  0  0  0  0  0  0  0
   21.4484   11.7615   57.2088 H   0  0  0  0  0  0  0  0  0  0  0  0
   21.7286   11.4781   55.6252 H   0  0  0  0  0  0  0  0  0  0  0  0
   19.0650   11.3954   56.0103 H   0  0  0  0  0  0  0  0  0  0  0  0
   17.1112   12.6593   55.4389 H   0  0  0  0  0  0  0  0  0  0  0  0
   16.7647   16.0376   55.5023 H   0  0  0  0  0  0  0  0  0  0  0  0
   16.9809   14.7410   51.3682 H   0  0  0  0  0  0  0  0  0  0  0  0
   16.6125   16.2811   49.5573 H   0  0  0  0  0  0  0  0  0  0  0  0
   15.2931   18.2395   49.9495 H   0  0  0  0  0  0  0  0  0  0  0  0
   14.7114   17.1880   53.8230 H   0  0  0  0  0  0  0  0  0  0  0  0
   19.4108   16.1081   55.2306 H   0  0  0  0  0  0  0  0  0  0  0  0
   22.3847   14.9733   55.0628 H   0  0  0  0  0  0  0  0  0  0  0  0
   21.2872   16.1676   60.0599 H   0  0  0  0  0  0  0  0  0  0  0  0
   23.1897   17.6385   60.0156 H   0  0  0  0  0  0  0  0  0  0  0  0
   24.5498   18.8210   59.9378 H   0  0  0  0  0  0  0  0  0  0  0  0
   26.4565   20.2865   59.8743 H   0  0  0  0  0  0  0  0  0  0  0  0
   27.7423   20.4315   57.8606 H   0  0  0  0  0  0  0  0  0  0  0  0
   25.3273   17.7486   56.0122 H   0  0  0  0  0  0  0  0  0  0  0  0
  1  2  1  0  0  0  0
  2  3  2  0  0  0  0
  3  4  1  0  0  0  0
  4  5  2  0  0  0  0
  5  6  1  0  0  0  0
  6  7  1  0  0  0  0
  7  8  2  0  0  0  0
  7  9  1  0  0  0  0
  9 10  2  0  0  0  0
 10 11  1  0  0  0  0
 11 12  2  0  0  0  0
 12 13  1  0  0  0  0
 13 14  2  0  0  0  0
  5 15  1  0  0  0  0
 15 16  2  0  0  0  0
 16 17  1  0  0  0  0
 17 18  1  0  0  0  0
 18 19  2  0  0  0  0
 19 20  1  0  0  0  0
 20 21  2  0  0  0  0
 21 22  1  0  0  0  0
 22 23  1  0  0  0  0
 23 24  2  0  0  0  0
 24 25  1  0  0  0  0
 25 26  2  0  0  0  0
 26 27  1  0  0  0  0
 27 28  2  0  0  0  0
 22 29  2  0  0  0  0
 16  2  1  0  0  0  0
 29 18  1  0  0  0  0
 14  9  1  0  0  0  0
 28 23  1  0  0  0  0
  1 30  1  0  0  0  0
  1 31  1  0  0  0  0
  1 32  1  0  0  0  0
  3 33  1  0  0  0  0
  4 34  1  0  0  0  0
  6 35  1  0  0  0  0
 10 36  1  0  0  0  0
 11 37  1  0  0  0  0
 12 38  1  0  0  0  0
 14 39  1  0  0  0  0
 15 40  1  0  0  0  0
 17 41  1  0  0  0  0
 20 42  1  0  0  0  0
 21 43  1  0  0  0  0
 24 44  1  0  0  0  0
 25 45  1  0  0  0  0
 26 46  1  0  0  0  0
 28 47  1  0  0  0  0
M  END
> <BIOSOLVEIT.HYDE_ESTIMATED_AFFINITY_LOWER_BOUNDARY [nM]>
75.590545

> <BIOSOLVEIT.HYDE_ESTIMATED_AFFINITY_UPPER_BOUNDARY [nM]>
7510.367571

> <BIOSOLVEIT.HYDE_LIGAND_EFFICIENCY range: ++, +, 0, -, -->
-

> <BIOSOLVEIT.HYDE_LIGAND_LIPOPHILIC_EFFICIENCY range: ++, +, 0, -, -->
--

> <BIOSOLVEIT.INTER_CLASH range: red, yellow, green>
red

> <BIOSOLVEIT.INTRA_CLASH range: red, yellow, green>
green

> <BIOSOLVEIT.LOGP>
4.23792

> <BIOSOLVEIT.MOLECULAR WEIGHT>
382.425

> <BIOSOLVEIT.MOLECULE_CHECKSUM>
LTM0Ljk0OTg7MS4yMDUxNg==

> <BIOSOLVEIT.TORSION_QUALITY range: red, yellow, green, not rotatable>
red

> <BIOSOLVEIT.TPSA>
92.69

$$$$
1FPU_PRC_3
foHydescor03192112273D 1   1.00000     0.00000     0
Hydescorer 1.1.0 fol007
 47 50  0  0  0  0            999 V2000
   21.0842   11.7665   56.4248 C   0  0  0  0  0  0  0  0  0  0  0  0
   20.1832   12.8805   55.9171 C   0  0  0  0  0  0  0  0  0  0  0  0
   18.8853   12.5662   55.5278 C   0  0  0  0  0  0  0  0  0  0  0  0
   18.0384   13.5657   55.0594 C   0  0  0  0  0  0  0  0  0  0  0  0
   18.5032   14.8747   54.9862 C   0  0  0  0  0  0  0  0  0  0  0  0
   17.6590   15.8878   54.5163 N   0  0  0  0  0  0  0  0  0  0  0  0
   16.3681   15.6393   53.9421 C   0  0  0  0  0  0  0  0  0  0  0  0
   15.4861   15.0616   54.6345 O   0  0  0  0  0  0  0  0  0  0  0  0
   16.0615   16.0560   52.5524 C   0  0  0  0  0  0  0  0  0  0  0  0
   16.5082   15.2766   51.4906 C   0  0  0  0  0  0  0  0  0  0  0  0
   16.2178   15.6703   50.1890 C   0  0  0  0  0  0  0  0  0  0  0  0
   15.4866   16.8367   49.9909 C   0  0  0  0  0  0  0  0  0  0  0  0
   15.0670   17.5718   51.0314 N   0  0  0  0  0  0  0  0  0  0  0  0
   15.3337   17.2134   52.2964 C   0  0  0  0  0  0  0  0  0  0  0  0
   19.7998   15.1968   55.3738 C   0  0  0  0  0  0  0  0  0  0  0  0
   20.6413   14.1921   55.8409 C   0  0  0  0  0  0  0  0  0  0  0  0
   21.9883   14.5102   56.2467 N   0  0  0  0  0  0  0  0  0  0  0  0
   22.2968   15.4255   57.2612 C   0  0  0  0  0  0  0  0  0  0  0  0
   21.5450   15.4395   58.3717 N   0  0  0  0  0  0  0  0  0  0  0  0
   21.7940   16.2940   59.3749 C   0  0  0  0  0  0  0  0  0  0  0  0
   22.8543   17.1877   59.2671 C   0  0  0  0  0  0  0  0  0  0  0  0
   23.6282   17.1659   58.1119 C   0  0  0  0  0  0  0  0  0  0  0  0
   24.7369   18.0958   57.9911 C   0  0  0  0  0  0  0  0  0  0  0  0
   25.0482   18.9310   59.0587 C   0  0  0  0  0  0  0  0  0  0  0  0
   26.1111   19.8193   58.9396 C   0  0  0  0  0  0  0  0  0  0  0  0
   26.8317   19.8434   57.7502 C   0  0  0  0  0  0  0  0  0  0  0  0
   26.5122   19.0279   56.7344 N   0  0  0  0  0  0  0  0  0  0  0  0
   25.4916   18.1619   56.8246 C   0  0  0  0  0  0  0  0  0  0  0  0
   23.3230   16.2840   57.1460 N   0  0  0  0  0  0  0  0  0  0  0  0
   21.9785   12.1442   56.6643 H   0  0  0  0  0  0  0  0  0  0  0  0
   20.6720   11.3469   57.2335 H   0  0  0  0  0  0  0  0  0  0  0  0
   21.1946   11.0755   55.7104 H   0  0  0  0  0  0  0  0  0  0  0  0
   18.5610   11.6219   55.5845 H   0  0  0  0  0  0  0  0  0  0  0  0
   17.1045   13.3452   54.7781 H   0  0  0  0  0  0  0  0  0  0  0  0
   17.9726   16.8349   54.5844 H   0  0  0  0  0  0  0  0  0  0  0  0
   17.0323   14.4423   51.6614 H   0  0  0  0  0  0  0  0  0  0  0  0
   16.5288   15.1253   49.4104 H   0  0  0  0  0  0  0  0  0  0  0  0
   15.2708   17.1313   49.0600 H   0  0  0  0  0  0  0  0  0  0  0  0
   15.0093   17.7783   53.0552 H   0  0  0  0  0  0  0  0  0  0  0  0
   20.1238   16.1412   55.3173 H   0  0  0  0  0  0  0  0  0  0  0  0
   22.7436   14.0520   55.7780 H   0  0  0  0  0  0  0  0  0  0  0  0
   21.2214   16.2885   60.1948 H   0  0  0  0  0  0  0  0  0  0  0  0
   23.0559   17.8323   60.0046 H   0  0  0  0  0  0  0  0  0  0  0  0
   24.5133   18.8930   59.9029 H   0  0  0  0  0  0  0  0  0  0  0  0
   26.3529   20.4290   59.6944 H   0  0  0  0  0  0  0  0  0  0  0  0
   27.5986   20.4775   57.6511 H   0  0  0  0  0  0  0  0  0  0  0  0
   25.2734   17.5639   56.0533 H   0  0  0  0  0  0  0  0  0  0  0  0
  1  2  1  0  0  0  0
  2  3  2  0  0  0  0
  3  4  1  0  0  0  0
  4  5  2  0  0  0  0
  5  6  1  0  0  0  0
  6  7  1  0  0  0  0
  7  8  2  0  0  0  0
  7  9  1  0  0  0  0
  9 10  2  0  0  0  0
 10 11  1  0  0  0  0
 11 12  2  0  0  0  0
 12 13  1  0  0  0  0
 13 14  2  0  0  0  0
  5 15  1  0  0  0  0
 15 16  2  0  0  0  0
 16 17  1  0  0  0  0
 17 18  1  0  0  0  0
 18 19  2  0  0  0  0
 19 20  1  0  0  0  0
 20 21  2  0  0  0  0
 21 22  1  0  0  0  0
 22 23  1  0  0  0  0
 23 24  2  0  0  0  0
 24 25  1  0  0  0  0
 25 26  2  0  0  0  0
 26 27  1  0  0  0  0
 27 28  2  0  0  0  0
 22 29  2  0  0  0  0
 16  2  1  0  0  0  0
 29 18  1  0  0  0  0
 14  9  1  0  0  0  0
 28 23  1  0  0  0  0
  1 30  1  0  0  0  0
  1 31  1  0  0  0  0
  1 32  1  0  0  0  0
  3 33  1  0  0  0  0
  4 34  1  0  0  0  0
  6 35  1  0  0  0  0
 10 36  1  0  0  0  0
 11 37  1  0  0  0  0
 12 38  1  0  0  0  0
 14 39  1  0  0  0  0
 15 40  1  0  0  0  0
 17 41  1  0  0  0  0
 20 42  1  0  0  0  0
 21 43  1  0  0  0  0
 24 44  1  0  0  0  0
 25 45  1  0  0  0  0
 26 46  1  0  0  0  0
 28 47  1  0  0  0  0
M  END
> <BIOSOLVEIT.HYDE_ESTIMATED_AFFINITY_LOWER_BOUNDARY [nM]>
67.244193

> <BIOSOLVEIT.HYDE_ESTIMATED_AFFINITY_UPPER_BOUNDARY [nM]>
6681.108124

> <BIOSOLVEIT.HYDE_LIGAND_EFFICIENCY range: ++, +, 0, -, -->
-

> <BIOSOLVEIT.HYDE_LIGAND_LIPOPHILIC_EFFICIENCY range: ++, +, 0, -, -->
--

> <BIOSOLVEIT.INTER_CLASH range: red, yellow, green>
green

> <BIOSOLVEIT.INTRA_CLASH range: red, yellow, green>
green

> <BIOSOLVEIT.LOGP>
4.23792

> <BIOSOLVEIT.MOLECULAR WEIGHT>
382.425

> <BIOSOLVEIT.MOLECULE_CHECKSUM>
LTM1LjIzOTg7MS4yMTUxNw==

> <BIOSOLVEIT.TORSION_QUALITY range: red, yellow, green, not rotatable>
red

> <BIOSOLVEIT.TPSA>
92.69

$$$$
6HD6_FYH_1
foHydescor03192112273D 1   1.00000     0.00000     0
Hydescorer 1.1.0 fol007
 47 49  0  0  0  0            999 V2000
   21.6957   16.6626   58.8770 O   0  0  0  0  0  0  0  0  0  0  0  0
   22.3148   16.1796   57.8894 C   0  0  0  0  0  0  0  0  0  0  0  0
   23.3738   16.9339   57.2756 N   0  0  0  0  0  0  0  0  0  0  0  0
   24.1843   17.8407   57.9677 C   0  0  0  0  0  0  0  0  0  0  0  0
   24.1589   17.8622   59.3586 C   0  0  0  0  0  0  0  0  0  0  0  0
   24.9614   18.7604   60.0553 C   0  0  0  0  0  0  0  0  0  0  0  0
   25.7823   19.6298   59.3446 C   0  0  0  0  0  0  0  0  0  0  0  0
   26.5966   20.5418   60.0354 O   0  0  0  0  0  0  0  0  0  0  0  0
   28.0226   20.5303   60.0446 C   0  0  0  0  0  0  0  0  0  0  0  0
   28.4739   21.5736   60.8288 F   0  0  0  0  0  0  0  0  0  0  0  0
   28.4865   19.3402   60.5756 F   0  0  0  0  0  0  0  0  0  0  0  0
   28.5091   20.6953   58.7601 F   0  0  0  0  0  0  0  0  0  0  0  0
   25.8137   19.6159   57.9534 C   0  0  0  0  0  0  0  0  0  0  0  0
   25.0084   18.7145   57.2652 C   0  0  0  0  0  0  0  0  0  0  0  0
   21.9066   14.8615   57.3457 C   0  0  0  0  0  0  0  0  0  0  0  0
   22.5919   13.7129   57.7277 C   0  0  0  0  0  0  0  0  0  0  0  0
   22.1949   12.4852   57.2074 C   0  0  0  0  0  0  0  0  0  0  0  0
   21.1295   12.3957   56.3174 C   0  0  0  0  0  0  0  0  0  0  0  0
   20.4579   13.5574   55.9494 C   0  0  0  0  0  0  0  0  0  0  0  0
   19.2915   13.4718   54.9776 C   0  0  0  0  0  0  0  0  0  0  0  0
   18.0876   14.1625   55.4962 N   0  3  0  0  0  0  0  0  0  0  0  0
   18.3720   15.5618   55.8467 C   0  0  0  0  0  0  0  0  0  0  0  0
   18.1513   16.4451   54.6283 C   0  0  0  0  0  0  0  0  0  0  0  0
   16.7881   16.4653   54.2199 O   0  0  0  0  0  0  0  0  0  0  0  0
   16.0965   15.2693   54.5465 C   0  0  0  0  0  0  0  0  0  0  0  0
   17.0307   14.0689   54.4752 C   0  0  0  0  0  0  0  0  0  0  0  0
   20.8382   14.7954   56.4574 C   0  0  0  0  0  0  0  0  0  0  0  0
   23.5408   16.8030   56.2984 H   0  0  0  0  0  0  0  0  0  0  0  0
   23.5639   17.2321   59.8576 H   0  0  0  0  0  0  0  0  0  0  0  0
   24.9482   18.7805   61.0550 H   0  0  0  0  0  0  0  0  0  0  0  0
   26.4081   20.2465   57.4543 H   0  0  0  0  0  0  0  0  0  0  0  0
   25.0216   18.6945   56.2655 H   0  0  0  0  0  0  0  0  0  0  0  0
   23.3589   13.7687   58.3670 H   0  0  0  0  0  0  0  0  0  0  0  0
   22.6825   11.6548   57.4772 H   0  0  0  0  0  0  0  0  0  0  0  0
   20.8504   11.5095   55.9476 H   0  0  0  0  0  0  0  0  0  0  0  0
   19.0700   12.5090   54.8225 H   0  0  0  0  0  0  0  0  0  0  0  0
   19.5598   13.8956   54.1125 H   0  0  0  0  0  0  0  0  0  0  0  0
   17.7776   13.6858   56.3188 H   0  0  0  0  0  0  0  0  0  0  0  0
   19.3215   15.6431   56.1496 H   0  0  0  0  0  0  0  0  0  0  0  0
   17.7611   15.8516   56.5834 H   0  0  0  0  0  0  0  0  0  0  0  0
   18.7086   16.0984   53.8739 H   0  0  0  0  0  0  0  0  0  0  0  0
   18.4348   17.3778   54.8510 H   0  0  0  0  0  0  0  0  0  0  0  0
   15.3444   15.1384   53.9006 H   0  0  0  0  0  0  0  0  0  0  0  0
   15.7300   15.3451   55.4739 H   0  0  0  0  0  0  0  0  0  0  0  0
   17.4529   14.0362   53.5693 H   0  0  0  0  0  0  0  0  0  0  0  0
   16.5023   13.2336   54.6270 H   0  0  0  0  0  0  0  0  0  0  0  0
   20.3505   15.6258   56.1879 H   0  0  0  0  0  0  0  0  0  0  0  0
  1  2  2  0  0  0  0
  2  3  1  0  0  0  0
  3  4  1  0  0  0  0
  4  5  2  0  0  0  0
  5  6  1  0  0  0  0
  6  7  2  0  0  0  0
  7  8  1  0  0  0  0
  8  9  1  0  0  0  0
  9 10  1  0  0  0  0
  9 11  1  0  0  0  0
  9 12  1  0  0  0  0
  7 13  1  0  0  0  0
 13 14  2  0  0  0  0
  2 15  1  0  0  0  0
 15 16  2  0  0  0  0
 16 17  1  0  0  0  0
 17 18  2  0  0  0  0
 18 19  1  0  0  0  0
 19 20  1  0  0  0  0
 20 21  1  0  0  0  0
 21 22  1  0  0  0  0
 22 23  1  0  0  0  0
 23 24  1  0  0  0  0
 24 25  1  0  0  0  0
 25 26  1  0  0  0  0
 19 27  2  0  0  0  0
 14  4  1  0  0  0  0
 27 15  1  0  0  0  0
 26 21  1  0  0  0  0
  3 28  1  0  0  0  0
  5 29  1  0  0  0  0
  6 30  1  0  0  0  0
 13 31  1  0  0  0  0
 14 32  1  0  0  0  0
 16 33  1  0  0  0  0
 17 34  1  0  0  0  0
 18 35  1  0  0  0  0
 20 36  1  0  0  0  0
 20 37  1  0  0  0  0
 21 38  1  0  0  0  0
 22 39  1  0  0  0  0
 22 40  1  0  0  0  0
 23 41  1  0  0  0  0
 23 42  1  0  0  0  0
 25 43  1  0  0  0  0
 25 44  1  0  0  0  0
 26 45  1  0  0  0  0
 26 46  1  0  0  0  0
 27 47  1  0  0  0  0
M  CHG  1  21   1
M  END
> <BIOSOLVEIT.HYDE_ESTIMATED_AFFINITY_LOWER_BOUNDARY [nM]>
407.130992

> <BIOSOLVEIT.HYDE_ESTIMATED_AFFINITY_UPPER_BOUNDARY [nM]>
40450.871217

> <BIOSOLVEIT.HYDE_LIGAND_EFFICIENCY range: ++, +, 0, -, -->
-

> <BIOSOLVEIT.HYDE_LIGAND_LIPOPHILIC_EFFICIENCY range: ++, +, 0, -, -->
-

> <BIOSOLVEIT.INTER_CLASH range: red, yellow, green>
yellow

> <BIOSOLVEIT.INTRA_CLASH range: red, yellow, green>
red

> <BIOSOLVEIT.LOGP>
2.2526

> <BIOSOLVEIT.MOLECULAR WEIGHT>
381.372

> <BIOSOLVEIT.MOLECULE_CHECKSUM>
LTMwLjc3NTc7MS4xMzk4NA==

> <BIOSOLVEIT.TORSION_QUALITY range: red, yellow, green, not rotatable>
yellow

> <BIOSOLVEIT.TPSA>
52

$$$$
6HD6_FYH_2
foHydescor03192112273D 1   1.00000     0.00000     0
Hydescorer 1.1.0 fol007
 47 49  0  0  0  0            999 V2000
   23.7777   17.1782   60.2541 O   0  0  0  0  0  0  0  0  0  0  0  0
   23.7426   17.5307   59.0432 C   0  0  0  0  0  0  0  0  0  0  0  0
   24.4391   18.7177   58.6273 N   0  0  0  0  0  0  0  0  0  0  0  0
   25.6346   19.2057   59.2606 C   0  0  0  0  0  0  0  0  0  0  0  0
   26.5572   19.9350   58.5172 C   0  0  0  0  0  0  0  0  0  0  0  0
   27.7167   20.4113   59.1214 C   0  0  0  0  0  0  0  0  0  0  0  0
   27.9370   20.1482   60.4693 C   0  0  0  0  0  0  0  0  0  0  0  0
   29.0578   20.6039   61.0669 O   0  0  0  0  0  0  0  0  0  0  0  0
   29.4414   21.9741   61.1634 C   0  0  0  0  0  0  0  0  0  0  0  0
   28.4631   22.6657   61.8511 F   0  0  0  0  0  0  0  0  0  0  0  0
   30.6356   22.0876   61.8523 F   0  0  0  0  0  0  0  0  0  0  0  0
   29.5712   22.5230   59.9003 F   0  0  0  0  0  0  0  0  0  0  0  0
   27.0200   19.4192   61.2206 C   0  0  0  0  0  0  0  0  0  0  0  0
   25.8635   18.9472   60.6084 C   0  0  0  0  0  0  0  0  0  0  0  0
   22.9595   16.7591   58.0981 C   0  0  0  0  0  0  0  0  0  0  0  0
   23.2422   16.8373   56.7382 C   0  0  0  0  0  0  0  0  0  0  0  0
   22.4802   16.0898   55.8460 C   0  0  0  0  0  0  0  0  0  0  0  0
   21.4479   15.2729   56.2958 C   0  0  0  0  0  0  0  0  0  0  0  0
   21.1828   15.2097   57.6603 C   0  0  0  0  0  0  0  0  0  0  0  0
   20.0639   14.3252   58.1605 C   0  0  0  0  0  0  0  0  0  0  0  0
   18.9187   14.3149   57.2392 N   0  3  0  0  0  0  0  0  0  0  0  0
   18.6019   15.6770   56.7919 C   0  0  0  0  0  0  0  0  0  0  0  0
   18.5828   15.7907   55.2708 C   0  0  0  0  0  0  0  0  0  0  0  0
   17.7178   14.8093   54.7127 O   0  0  0  0  0  0  0  0  0  0  0  0
   18.0610   13.4757   55.0816 C   0  0  0  0  0  0  0  0  0  0  0  0
   19.1741   13.4007   56.1129 C   0  0  0  0  0  0  0  0  0  0  0  0
   21.9322   15.9487   58.5700 C   0  0  0  0  0  0  0  0  0  0  0  0
   24.0712   19.2335   57.8535 H   0  0  0  0  0  0  0  0  0  0  0  0
   26.3872   20.1169   57.5487 H   0  0  0  0  0  0  0  0  0  0  0  0
   28.3837   20.9364   58.5927 H   0  0  0  0  0  0  0  0  0  0  0  0
   27.1905   19.2368   62.1889 H   0  0  0  0  0  0  0  0  0  0  0  0
   25.1967   18.4221   61.1371 H   0  0  0  0  0  0  0  0  0  0  0  0
   23.9825   17.4223   56.4068 H   0  0  0  0  0  0  0  0  0  0  0  0
   22.6774   16.1404   54.8670 H   0  0  0  0  0  0  0  0  0  0  0  0
   20.9044   14.7390   55.6481 H   0  0  0  0  0  0  0  0  0  0  0  0
   19.7591   14.6623   59.0512 H   0  0  0  0  0  0  0  0  0  0  0  0
   20.4089   13.3916   58.2577 H   0  0  0  0  0  0  0  0  0  0  0  0
   18.1269   13.9668   57.7410 H   0  0  0  0  0  0  0  0  0  0  0  0
   19.2918   16.3040   57.1536 H   0  0  0  0  0  0  0  0  0  0  0  0
   17.7019   15.9316   57.1458 H   0  0  0  0  0  0  0  0  0  0  0  0
   19.5084   15.6533   54.9182 H   0  0  0  0  0  0  0  0  0  0  0  0
   18.2593   16.7009   55.0121 H   0  0  0  0  0  0  0  0  0  0  0  0
   18.3560   12.9862   54.2611 H   0  0  0  0  0  0  0  0  0  0  0  0
   17.2483   13.0328   55.4601 H   0  0  0  0  0  0  0  0  0  0  0  0
   20.0389   13.6521   55.6784 H   0  0  0  0  0  0  0  0  0  0  0  0
   19.2350   12.4648   56.4598 H   0  0  0  0  0  0  0  0  0  0  0  0
   21.7352   15.8979   59.5491 H   0  0  0  0  0  0  0  0  0  0  0  0
  1  2  2  0  0  0  0
  2  3  1  0  0  0  0
  3  4  1  0  0  0  0
  4  5  2  0  0  0  0
  5  6  1  0  0  0  0
  6  7  2  0  0  0  0
  7  8  1  0  0  0  0
  8  9  1  0  0  0  0
  9 10  1  0  0  0  0
  9 11  1  0  0  0  0
  9 12  1  0  0  0  0
  7 13  1  0  0  0  0
 13 14  2  0  0  0  0
  2 15  1  0  0  0  0
 15 16  2  0  0  0  0
 16 17  1  0  0  0  0
 17 18  2  0  0  0  0
 18 19  1  0  0  0  0
 19 20  1  0  0  0  0
 20 21  1  0  0  0  0
 21 22  1  0  0  0  0
 22 23  1  0  0  0  0
 23 24  1  0  0  0  0
 24 25  1  0  0  0  0
 25 26  1  0  0  0  0
 19 27  2  0  0  0  0
 14  4  1  0  0  0  0
 27 15  1  0  0  0  0
 26 21  1  0  0  0  0
  3 28  1  0  0  0  0
  5 29  1  0  0  0  0
  6 30  1  0  0  0  0
 13 31  1  0  0  0  0
 14 32  1  0  0  0  0
 16 33  1  0  0  0  0
 17 34  1  0  0  0  0
 18 35  1  0  0  0  0
 20 36  1  0  0  0  0
 20 37  1  0  0  0  0
 21 38  1  0  0  0  0
 22 39  1  0  0  0  0
 22 40  1  0  0  0  0
 23 41  1  0  0  0  0
 23 42  1  0  0  0  0
 25 43  1  0  0  0  0
 25 44  1  0  0  0  0
 26 45  1  0  0  0  0
 26 46  1  0  0  0  0
 27 47  1  0  0  0  0
M  CHG  1  21   1
M  END
> <BIOSOLVEIT.HYDE_ESTIMATED_AFFINITY_LOWER_BOUNDARY [nM]>
272323.450388

> <BIOSOLVEIT.HYDE_ESTIMATED_AFFINITY_UPPER_BOUNDARY [nM]>
27056944.899739

> <BIOSOLVEIT.HYDE_LIGAND_EFFICIENCY range: ++, +, 0, -, -->
--

> <BIOSOLVEIT.HYDE_LIGAND_LIPOPHILIC_EFFICIENCY range: ++, +, 0, -, -->
--

> <BIOSOLVEIT.INTER_CLASH range: red, yellow, green>
green

> <BIOSOLVEIT.INTRA_CLASH range: red, yellow, green>
yellow

> <BIOSOLVEIT.LOGP>
2.2526

> <BIOSOLVEIT.MOLECULAR WEIGHT>
381.372

> <BIOSOLVEIT.MOLECULE_CHECKSUM>
LTE0LjY0ODY7MC41NDI1NA==

> <BIOSOLVEIT.TORSION_QUALITY range: red, yellow, green, not rotatable>
yellow

> <BIOSOLVEIT.TPSA>
52

$$$$
6HD6_FYH_3
foHydescor03192112273D 1   1.00000     0.00000     0
Hydescorer 1.1.0 fol007
 47 49  0  0  0  0            999 V2000
   21.2822   15.8616   58.0782 O   0  0  0  0  0  0  0  0  0  0  0  0
   21.9798   16.0499   57.0436 C   0  0  0  0  0  0  0  0  0  0  0  0
   21.5824   15.4502   55.7988 N   0  0  0  0  0  0  0  0  0  0  0  0
   20.2154   15.1785   55.4435 C   0  0  0  0  0  0  0  0  0  0  0  0
   19.3765   16.2293   55.0860 C   0  0  0  0  0  0  0  0  0  0  0  0
   18.0526   15.9761   54.7406 C   0  0  0  0  0  0  0  0  0  0  0  0
   17.5849   14.6662   54.7589 C   0  0  0  0  0  0  0  0  0  0  0  0
   16.3028   14.4073   54.4267 O   0  0  0  0  0  0  0  0  0  0  0  0
   15.5733   15.0579   53.3885 C   0  0  0  0  0  0  0  0  0  0  0  0
   16.2172   14.8424   52.1855 F   0  0  0  0  0  0  0  0  0  0  0  0
   14.2932   14.5394   53.3081 F   0  0  0  0  0  0  0  0  0  0  0  0
   15.5168   16.4195   53.6262 F   0  0  0  0  0  0  0  0  0  0  0  0
   18.4166   13.6090   55.1157 C   0  0  0  0  0  0  0  0  0  0  0  0
   19.7387   13.8713   55.4591 C   0  0  0  0  0  0  0  0  0  0  0  0
   23.2269   16.8468   57.1393 C   0  0  0  0  0  0  0  0  0  0  0  0
   24.0786   16.9337   56.0428 C   0  0  0  0  0  0  0  0  0  0  0  0
   25.2440   17.6858   56.1510 C   0  0  0  0  0  0  0  0  0  0  0  0
   25.5632   18.3453   57.3335 C   0  0  0  0  0  0  0  0  0  0  0  0
   24.6967   18.2449   58.4175 C   0  0  0  0  0  0  0  0  0  0  0  0
   25.0350   18.9620   59.7150 C   0  0  0  0  0  0  0  0  0  0  0  0
   26.4952   19.1552   59.8759 N   0  3  0  0  0  0  0  0  0  0  0  0
   26.8719   20.4386   59.2652 C   0  0  0  0  0  0  0  0  0  0  0  0
   28.3391   20.7349   59.5417 C   0  0  0  0  0  0  0  0  0  0  0  0
   28.6785   20.5980   60.9208 O   0  0  0  0  0  0  0  0  0  0  0  0
   27.5674   20.3214   61.7713 C   0  0  0  0  0  0  0  0  0  0  0  0
   26.8388   19.0715   61.3007 C   0  0  0  0  0  0  0  0  0  0  0  0
   23.5260   17.4983   58.3313 C   0  0  0  0  0  0  0  0  0  0  0  0
   22.2971   15.2082   55.1425 H   0  0  0  0  0  0  0  0  0  0  0  0
   19.7250   17.1666   55.0775 H   0  0  0  0  0  0  0  0  0  0  0  0
   17.4446   16.7268   54.4822 H   0  0  0  0  0  0  0  0  0  0  0  0
   18.0678   12.6718   55.1250 H   0  0  0  0  0  0  0  0  0  0  0  0
   20.3466   13.1205   55.7173 H   0  0  0  0  0  0  0  0  0  0  0  0
   23.8563   16.4625   55.1892 H   0  0  0  0  0  0  0  0  0  0  0  0
   25.8613   17.7533   55.3672 H   0  0  0  0  0  0  0  0  0  0  0  0
   26.4030   18.8837   57.4035 H   0  0  0  0  0  0  0  0  0  0  0  0
   24.6944   18.4190   60.4826 H   0  0  0  0  0  0  0  0  0  0  0  0
   24.5887   19.8568   59.7156 H   0  0  0  0  0  0  0  0  0  0  0  0
   26.9690   18.4204   59.3904 H   0  0  0  0  0  0  0  0  0  0  0  0
   26.3079   21.1679   59.6525 H   0  0  0  0  0  0  0  0  0  0  0  0
   26.7237   20.3915   58.2773 H   0  0  0  0  0  0  0  0  0  0  0  0
   28.5355   21.6727   59.2554 H   0  0  0  0  0  0  0  0  0  0  0  0
   28.8994   20.0999   59.0098 H   0  0  0  0  0  0  0  0  0  0  0  0
   26.9367   21.0973   61.7527 H   0  0  0  0  0  0  0  0  0  0  0  0
   27.8946   20.1802   62.7057 H   0  0  0  0  0  0  0  0  0  0  0  0
   25.9985   18.9653   61.8322 H   0  0  0  0  0  0  0  0  0  0  0  0
   27.4283   18.2770   61.4469 H   0  0  0  0  0  0  0  0  0  0  0  0
   22.9085   17.4310   59.1149 H   0  0  0  0  0  0  0  0  0  0  0  0
  1  2  2  0  0  0  0
  2  3  1  0  0  0  0
  3  4  1  0  0  0  0
  4  5  2  0  0  0  0
  5  6  1  0  0  0  0
  6  7  2  0  0  0  0
  7  8  1  0  0  0  0
  8  9  1  0  0  0  0
  9 10  1  0  0  0  0
  9 11  1  0  0  0  0
  9 12  1  0  0  0  0
  7 13  1  0  0  0  0
 13 14  2  0  0  0  0
  2 15  1  0  0  0  0
 15 16  2  0  0  0  0
 16 17  1  0  0  0  0
 17 18  2  0  0  0  0
 18 19  1  0  0  0  0
 19 20  1  0  0  0  0
 20 21  1  0  0  0  0
 21 22  1  0  0  0  0
 22 23  1  0  0  0  0
 23 24  1  0  0  0  0
 24 25  1  0  0  0  0
 25 26  1  0  0  0  0
 19 27  2  0  0  0  0
 14  4  1  0  0  0  0
 27 15  1  0  0  0  0
 26 21  1  0  0  0  0
  3 28  1  0  0  0  0
  5 29  1  0  0  0  0
  6 30  1  0  0  0  0
 13 31  1  0  0  0  0
 14 32  1  0  0  0  0
 16 33  1  0  0  0  0
 17 34  1  0  0  0  0
 18 35  1  0  0  0  0
 20 36  1  0  0  0  0
 20 37  1  0  0  0  0
 21 38  1  0  0  0  0
 22 39  1  0  0  0  0
 22 40  1  0  0  0  0
 23 41  1  0  0  0  0
 23 42  1  0  0  0  0
 25 43  1  0  0  0  0
 25 44  1  0  0  0  0
 26 45  1  0  0  0  0
 26 46  1  0  0  0  0
 27 47  1  0  0  0  0
M  CHG  1  21   1
M  END
> <BIOSOLVEIT.HYDE_ESTIMATED_AFFINITY_LOWER_BOUNDARY [nM]>
47023.696109

> <BIOSOLVEIT.HYDE_ESTIMATED_AFFINITY_UPPER_BOUNDARY [nM]>
4672082.234560

> <BIOSOLVEIT.HYDE_LIGAND_EFFICIENCY range: ++, +, 0, -, -->
--

> <BIOSOLVEIT.HYDE_LIGAND_LIPOPHILIC_EFFICIENCY range: ++, +, 0, -, -->
--

> <BIOSOLVEIT.INTER_CLASH range: red, yellow, green>
yellow

> <BIOSOLVEIT.INTRA_CLASH range: red, yellow, green>
yellow

> <BIOSOLVEIT.LOGP>
2.2526

> <BIOSOLVEIT.MOLECULAR WEIGHT>
381.372

> <BIOSOLVEIT.MOLECULE_CHECKSUM>
LTE5LjAwMjU7MC43MDM3OTU=

> <BIOSOLVEIT.TORSION_QUALITY range: red, yellow, green, not rotatable>
red

> <BIOSOLVEIT.TPSA>
52

$$$$
6HD4_FYW_1
foHydescor03192112273D 1   1.00000     0.00000     0
Hydescorer 1.1.0 fol007
 50 53  0  0  0  0            999 V2000
   12.7944   14.6925   57.1288 O   0  0  0  0  0  0  0  0  0  0  0  0
   12.7757   14.5972   55.8721 C   0  0  0  0  0  0  0  0  0  0  0  0
   14.0257   14.5226   55.1660 N   0  0  0  0  0  0  0  0  0  0  0  0
   14.2350   15.0127   53.8296 C   0  0  0  0  0  0  0  0  0  0  0  0
   14.9282   16.2033   53.6351 C   0  0  0  0  0  0  0  0  0  0  0  0
   15.1356   16.6848   52.3461 C   0  0  0  0  0  0  0  0  0  0  0  0
   14.6424   15.9632   51.2642 C   0  0  0  0  0  0  0  0  0  0  0  0
   14.8362   16.4199   50.0093 O   0  0  0  0  0  0  0  0  0  0  0  0
   16.0682   16.3633   49.2937 C   0  0  0  0  0  0  0  0  0  0  0  0
   16.4779   15.0492   49.1529 F   0  0  0  0  0  0  0  0  0  0  0  0
   17.0303   17.0562   50.0022 F   0  0  0  0  0  0  0  0  0  0  0  0
   15.9236   16.9485   48.0485 F   0  0  0  0  0  0  0  0  0  0  0  0
   13.9474   14.7717   51.4493 C   0  0  0  0  0  0  0  0  0  0  0  0
   13.7449   14.2976   52.7412 C   0  0  0  0  0  0  0  0  0  0  0  0
   11.4996   14.5261   55.1856 C   0  0  0  0  0  0  0  0  0  0  0  0
   10.4819   13.6826   55.6194 C   0  0  0  0  0  0  0  0  0  0  0  0
    9.3073   13.6293   54.9737 N   0  0  0  0  0  0  0  0  0  0  0  0
    9.0692   14.3831   53.8898 C   0  0  0  0  0  0  0  0  0  0  0  0
    7.8276   14.3025   53.2374 N   0  0  0  0  0  0  0  0  0  0  0  0
    6.7939   15.3387   53.2271 C   0  0  0  0  0  0  0  0  0  0  0  0
    5.5171   14.5548   52.9983 C   0  0  0  0  0  0  0  0  0  0  0  0
    5.9687   13.5534   51.9554 C   0  0  1  0  0  0  0  0  0  0  0  0
    6.0326   14.1241   50.6752 O   0  0  0  0  0  0  0  0  0  0  0  0
    7.3345   13.1537   52.4794 C   0  0  0  0  0  0  0  0  0  0  0  0
   10.0517   15.2445   53.4115 C   0  0  0  0  0  0  0  0  0  0  0  0
    9.8307   16.0742   52.2427 C   0  0  0  0  0  0  0  0  0  0  0  0
   10.0168   17.4513   52.2988 C   0  0  0  0  0  0  0  0  0  0  0  0
    9.8096   18.2002   51.2063 N   0  0  0  0  0  0  0  0  0  0  0  0
    9.4215   17.6463   50.0478 C   0  0  0  0  0  0  0  0  0  0  0  0
    9.2359   16.3206   49.9675 N   0  0  0  0  0  0  0  0  0  0  0  0
    9.4305   15.5266   51.0291 C   0  0  0  0  0  0  0  0  0  0  0  0
   11.2779   15.3180   54.0638 C   0  0  0  0  0  0  0  0  0  0  0  0
   14.8020   14.1018   55.6353 H   0  0  0  0  0  0  0  0  0  0  0  0
   15.2772   16.7129   54.4215 H   0  0  0  0  0  0  0  0  0  0  0  0
   15.6334   17.5396   52.1994 H   0  0  0  0  0  0  0  0  0  0  0  0
   13.5978   14.2626   50.6628 H   0  0  0  0  0  0  0  0  0  0  0  0
   13.2472   13.4428   52.8877 H   0  0  0  0  0  0  0  0  0  0  0  0
   10.6282   13.1075   56.4244 H   0  0  0  0  0  0  0  0  0  0  0  0
    6.9499   15.9931   52.4873 H   0  0  0  0  0  0  0  0  0  0  0  0
    6.7644   15.8242   54.1009 H   0  0  0  0  0  0  0  0  0  0  0  0
    4.7849   15.1406   52.6509 H   0  0  0  0  0  0  0  0  0  0  0  0
    5.2115   14.1000   53.8348 H   0  0  0  0  0  0  0  0  0  0  0  0
    5.3569   12.7624   51.9498 H   0  0  0  0  0  0  0  0  0  0  0  0
    6.8359   14.7165   50.6140 H   0  0  0  0  0  0  0  0  0  0  0  0
    7.9514   12.9480   51.7198 H   0  0  0  0  0  0  0  0  0  0  0  0
    7.2580   12.3526   53.0730 H   0  0  0  0  0  0  0  0  0  0  0  0
   10.3051   17.8826   53.1537 H   0  0  0  0  0  0  0  0  0  0  0  0
    9.2708   18.2219   49.2441 H   0  0  0  0  0  0  0  0  0  0  0  0
    9.2878   14.5401   50.9484 H   0  0  0  0  0  0  0  0  0  0  0  0
   11.9921   15.9333   53.7300 H   0  0  0  0  0  0  0  0  0  0  0  0
  1  2  2  0  0  0  0
  2  3  1  0  0  0  0
  3  4  1  0  0  0  0
  4  5  2  0  0  0  0
  5  6  1  0  0  0  0
  6  7  2  0  0  0  0
  7  8  1  0  0  0  0
  8  9  1  0  0  0  0
  9 10  1  0  0  0  0
  9 11  1  0  0  0  0
  9 12  1  0  0  0  0
  7 13  1  0  0  0  0
 13 14  2  0  0  0  0
  2 15  1  0  0  0  0
 15 16  2  0  0  0  0
 16 17  1  0  0  0  0
 17 18  2  0  0  0  0
 18 19  1  0  0  0  0
 19 20  1  0  0  0  0
 20 21  1  0  0  0  0
 21 22  1  0  0  0  0
 22 23  1  0  0  0  0
 22 24  1  0  0  0  0
 18 25  1  0  0  0  0
 25 26  1  0  0  0  0
 26 27  2  0  0  0  0
 27 28  1  0  0  0  0
 28 29  2  0  0  0  0
 29 30  1  0  0  0  0
 30 31  2  0  0  0  0
 25 32  2  0  0  0  0
 14  4  1  0  0  0  0
 32 15  1  0  0  0  0
 24 19  1  0  0  0  0
 31 26  1  0  0  0  0
  3 33  1  0  0  0  0
  5 34  1  0  0  0  0
  6 35  1  0  0  0  0
 13 36  1  0  0  0  0
 14 37  1  0  0  0  0
 16 38  1  0  0  0  0
 20 39  1  0  0  0  0
 20 40  1  0  0  0  0
 21 41  1  0  0  0  0
 21 42  1  0  0  0  0
 22 43  1  0  0  0  0
 23 44  1  0  0  0  0
 24 45  1  0  0  0  0
 24 46  1  0  0  0  0
 27 47  1  0  0  0  0
 29 48  1  0  0  0  0
 31 49  1  0  0  0  0
 32 50  1  0  0  0  0
M  END
> <BIOSOLVEIT.HYDE_ESTIMATED_AFFINITY_LOWER_BOUNDARY [nM]>
7381101.254420

> <BIOSOLVEIT.HYDE_ESTIMATED_AFFINITY_UPPER_BOUNDARY [nM]>
733356050.150961

> <BIOSOLVEIT.HYDE_LIGAND_EFFICIENCY range: ++, +, 0, -, -->
--

> <BIOSOLVEIT.HYDE_LIGAND_LIPOPHILIC_EFFICIENCY range: ++, +, 0, -, -->
--

> <BIOSOLVEIT.INTER_CLASH range: red, yellow, green>
yellow

> <BIOSOLVEIT.INTRA_CLASH range: red, yellow, green>
yellow

> <BIOSOLVEIT.LOGP>
3.2605

> <BIOSOLVEIT.MOLECULAR WEIGHT>
445.399

> <BIOSOLVEIT.MOLECULE_CHECKSUM>
LTYuNDY4Nzg7MC4yMDIxNDk=

> <BIOSOLVEIT.TORSION_QUALITY range: red, yellow, green, not rotatable>
red

> <BIOSOLVEIT.TPSA>
100.47

$$$$
6HD4_FYW_2
foHydescor03192112273D 1   1.00000     0.00000     0
Hydescorer 1.1.0 fol007
 50 53  0  0  0  0            999 V2000
    6.0237   16.0101   50.3087 O   0  0  0  0  0  0  0  0  0  0  0  0
    6.7812   15.3491   51.0682 C   0  0  0  0  0  0  0  0  0  0  0  0
    6.2580   14.1778   51.7172 N   0  0  0  0  0  0  0  0  0  0  0  0
    6.6998   13.6916   52.9972 C   0  0  0  0  0  0  0  0  0  0  0  0
    6.4230   14.4282   54.1447 C   0  0  0  0  0  0  0  0  0  0  0  0
    6.8462   13.9658   55.3870 C   0  0  0  0  0  0  0  0  0  0  0  0
    7.5454   12.7656   55.4626 C   0  0  0  0  0  0  0  0  0  0  0  0
    7.9619   12.3067   56.6612 O   0  0  0  0  0  0  0  0  0  0  0  0
    8.3365   10.9598   56.9423 C   0  0  0  0  0  0  0  0  0  0  0  0
    9.4004   10.5838   56.1415 F   0  0  0  0  0  0  0  0  0  0  0  0
    7.2638   10.1314   56.6755 F   0  0  0  0  0  0  0  0  0  0  0  0
    8.6801   10.8289   58.2758 F   0  0  0  0  0  0  0  0  0  0  0  0
    7.8272   12.0227   54.3200 C   0  0  0  0  0  0  0  0  0  0  0  0
    7.4001   12.4923   53.0824 C   0  0  0  0  0  0  0  0  0  0  0  0
    8.1921   15.7761   51.2352 C   0  0  0  0  0  0  0  0  0  0  0  0
    8.7936   16.6718   50.3567 C   0  0  0  0  0  0  0  0  0  0  0  0
   10.0705   17.0485   50.5223 N   0  0  0  0  0  0  0  0  0  0  0  0
   10.8137   16.5784   51.5354 C   0  0  0  0  0  0  0  0  0  0  0  0
   12.1436   16.9926   51.6786 N   0  0  0  0  0  0  0  0  0  0  0  0
   13.2929   16.4594   50.9456 C   0  0  0  0  0  0  0  0  0  0  0  0
   14.4562   16.7272   51.8791 C   0  0  0  0  0  0  0  0  0  0  0  0
   14.1199   18.1171   52.3784 C   0  0  1  0  0  0  0  0  0  0  0  0
   14.4486   19.1131   51.4282 O   0  0  0  0  0  0  0  0  0  0  0  0
   12.6251   18.0103   52.6112 C   0  0  0  0  0  0  0  0  0  0  0  0
   10.2632   15.6796   52.4438 C   0  0  0  0  0  0  0  0  0  0  0  0
   11.0358   15.1500   53.5511 C   0  0  0  0  0  0  0  0  0  0  0  0
   10.4385   14.8928   54.7803 C   0  0  0  0  0  0  0  0  0  0  0  0
   11.1700   14.4009   55.7905 N   0  0  0  0  0  0  0  0  0  0  0  0
   12.4791   14.1492   55.6419 C   0  0  0  0  0  0  0  0  0  0  0  0
   13.0785   14.3880   54.4663 N   0  0  0  0  0  0  0  0  0  0  0  0
   12.3934   14.8781   53.4243 C   0  0  0  0  0  0  0  0  0  0  0  0
    8.9413   15.2740   52.2939 C   0  0  0  0  0  0  0  0  0  0  0  0
    5.5386   13.6665   51.2472 H   0  0  0  0  0  0  0  0  0  0  0  0
    5.9200   15.2898   54.0766 H   0  0  0  0  0  0  0  0  0  0  0  0
    6.6501   14.4900   56.2157 H   0  0  0  0  0  0  0  0  0  0  0  0
    8.3309   11.1614   54.3880 H   0  0  0  0  0  0  0  0  0  0  0  0
    7.5963   11.9679   52.2538 H   0  0  0  0  0  0  0  0  0  0  0  0
    8.2665   17.0401   49.5910 H   0  0  0  0  0  0  0  0  0  0  0  0
   13.4151   16.9359   50.0750 H   0  0  0  0  0  0  0  0  0  0  0  0
   13.1870   15.4794   50.7772 H   0  0  0  0  0  0  0  0  0  0  0  0
   15.3286   16.7147   51.3903 H   0  0  0  0  0  0  0  0  0  0  0  0
   14.4845   16.0656   52.6285 H   0  0  0  0  0  0  0  0  0  0  0  0
   14.5911   18.2962   53.2421 H   0  0  0  0  0  0  0  0  0  0  0  0
   15.4423   19.1635   51.3283 H   0  0  0  0  0  0  0  0  0  0  0  0
   12.1813   18.8875   52.4276 H   0  0  0  0  0  0  0  0  0  0  0  0
   12.4392   17.7335   53.5539 H   0  0  0  0  0  0  0  0  0  0  0  0
    9.4639   15.0747   54.9106 H   0  0  0  0  0  0  0  0  0  0  0  0
   13.0081   13.7836   56.4078 H   0  0  0  0  0  0  0  0  0  0  0  0
   12.8585   15.0482   52.5555 H   0  0  0  0  0  0  0  0  0  0  0  0
    8.5341   14.6285   52.9402 H   0  0  0  0  0  0  0  0  0  0  0  0
  1  2  2  0  0  0  0
  2  3  1  0  0  0  0
  3  4  1  0  0  0  0
  4  5  2  0  0  0  0
  5  6  1  0  0  0  0
  6  7  2  0  0  0  0
  7  8  1  0  0  0  0
  8  9  1  0  0  0  0
  9 10  1  0  0  0  0
  9 11  1  0  0  0  0
  9 12  1  0  0  0  0
  7 13  1  0  0  0  0
 13 14  2  0  0  0  0
  2 15  1  0  0  0  0
 15 16  2  0  0  0  0
 16 17  1  0  0  0  0
 17 18  2  0  0  0  0
 18 19  1  0  0  0  0
 19 20  1  0  0  0  0
 20 21  1  0  0  0  0
 21 22  1  0  0  0  0
 22 23  1  0  0  0  0
 22 24  1  0  0  0  0
 18 25  1  0  0  0  0
 25 26  1  0  0  0  0
 26 27  2  0  0  0  0
 27 28  1  0  0  0  0
 28 29  2  0  0  0  0
 29 30  1  0  0  0  0
 30 31  2  0  0  0  0
 25 32  2  0  0  0  0
 14  4  1  0  0  0  0
 32 15  1  0  0  0  0
 24 19  1  0  0  0  0
 31 26  1  0  0  0  0
  3 33  1  0  0  0  0
  5 34  1  0  0  0  0
  6 35  1  0  0  0  0
 13 36  1  0  0  0  0
 14 37  1  0  0  0  0
 16 38  1  0  0  0  0
 20 39  1  0  0  0  0
 20 40  1  0  0  0  0
 21 41  1  0  0  0  0
 21 42  1  0  0  0  0
 22 43  1  0  0  0  0
 23 44  1  0  0  0  0
 24 45  1  0  0  0  0
 24 46  1  0  0  0  0
 27 47  1  0  0  0  0
 29 48  1  0  0  0  0
 31 49  1  0  0  0  0
 32 50  1  0  0  0  0
M  END
> <BIOSOLVEIT.HYDE_ESTIMATED_AFFINITY_LOWER_BOUNDARY [nM]>
1563222.619923

> <BIOSOLVEIT.HYDE_ESTIMATED_AFFINITY_UPPER_BOUNDARY [nM]>
155315409.792940

> <BIOSOLVEIT.HYDE_LIGAND_EFFICIENCY range: ++, +, 0, -, -->
--

> <BIOSOLVEIT.HYDE_LIGAND_LIPOPHILIC_EFFICIENCY range: ++, +, 0, -, -->
--

> <BIOSOLVEIT.INTER_CLASH range: red, yellow, green>
green

> <BIOSOLVEIT.INTRA_CLASH range: red, yellow, green>
red

> <BIOSOLVEIT.LOGP>
3.2605

> <BIOSOLVEIT.MOLECULAR WEIGHT>
445.399

> <BIOSOLVEIT.MOLECULE_CHECKSUM>
LTEwLjMxNjY7MC4zMjIzOTI=

> <BIOSOLVEIT.TORSION_QUALITY range: red, yellow, green, not rotatable>
red

> <BIOSOLVEIT.TPSA>
100.47

$$$$
6HD4_FYW_3
foHydescor03192112273D 1   1.00000     0.00000     0
Hydescorer 1.1.0 fol007
 50 53  0  0  0  0            999 V2000
   12.7877   14.6944   57.0764 O   0  0  0  0  0  0  0  0  0  0  0  0
   12.7496   14.6302   55.8182 C   0  0  0  0  0  0  0  0  0  0  0  0
   13.9840   14.4842   55.0960 N   0  0  0  0  0  0  0  0  0  0  0  0
   14.2142   14.9897   53.7688 C   0  0  0  0  0  0  0  0  0  0  0  0
   14.9126   16.1810   53.5987 C   0  0  0  0  0  0  0  0  0  0  0  0
   15.1401   16.6773   52.3188 C   0  0  0  0  0  0  0  0  0  0  0  0
   14.6615   15.9697   51.2212 C   0  0  0  0  0  0  0  0  0  0  0  0
   14.8748   16.4409   49.9747 O   0  0  0  0  0  0  0  0  0  0  0  0
   16.1042   16.3474   49.2585 C   0  0  0  0  0  0  0  0  0  0  0  0
   16.4605   15.0206   49.0940 F   0  0  0  0  0  0  0  0  0  0  0  0
   17.0929   16.9878   49.9798 F   0  0  0  0  0  0  0  0  0  0  0  0
   15.9846   16.9605   48.0242 F   0  0  0  0  0  0  0  0  0  0  0  0
   13.9614   14.7777   51.3818 C   0  0  0  0  0  0  0  0  0  0  0  0
   13.7389   14.2886   52.6648 C   0  0  0  0  0  0  0  0  0  0  0  0
   11.4649   14.6659   55.1452 C   0  0  0  0  0  0  0  0  0  0  0  0
   10.3666   13.9618   55.6285 C   0  0  0  0  0  0  0  0  0  0  0  0
    9.1852   14.0060   54.9947 N   0  0  0  0  0  0  0  0  0  0  0  0
    9.0173   14.7265   53.8756 C   0  0  0  0  0  0  0  0  0  0  0  0
    7.7674   14.7504   53.2376 N   0  0  0  0  0  0  0  0  0  0  0  0
    6.4971   15.0637   53.8776 C   0  0  0  0  0  0  0  0  0  0  0  0
    5.7750   15.8420   52.7934 C   0  0  0  0  0  0  0  0  0  0  0  0
    6.1948   15.1578   51.5052 C   0  0  1  0  0  0  0  0  0  0  0  0
    6.3476   16.1356   50.5107 O   0  0  0  0  0  0  0  0  0  0  0  0
    7.5128   14.4799   51.8199 C   0  0  0  0  0  0  0  0  0  0  0  0
   10.0820   15.4500   53.3473 C   0  0  0  0  0  0  0  0  0  0  0  0
    9.9384   16.2398   52.1395 C   0  0  0  0  0  0  0  0  0  0  0  0
    9.7614   17.6177   52.2039 C   0  0  0  0  0  0  0  0  0  0  0  0
    9.6331   18.3300   51.0754 N   0  0  0  0  0  0  0  0  0  0  0  0
    9.6708   17.7381   49.8722 C   0  0  0  0  0  0  0  0  0  0  0  0
    9.8412   16.4109   49.7831 N   0  0  0  0  0  0  0  0  0  0  0  0
    9.9757   15.6528   50.8796 C   0  0  0  0  0  0  0  0  0  0  0  0
   11.3171   15.4206   53.9862 C   0  0  0  0  0  0  0  0  0  0  0  0
   14.7333   13.9987   55.5465 H   0  0  0  0  0  0  0  0  0  0  0  0
   15.2510   16.6804   54.3961 H   0  0  0  0  0  0  0  0  0  0  0  0
   15.6418   17.5327   52.1896 H   0  0  0  0  0  0  0  0  0  0  0  0
   13.6223   14.2786   50.5843 H   0  0  0  0  0  0  0  0  0  0  0  0
   13.2373   13.4332   52.7938 H   0  0  0  0  0  0  0  0  0  0  0  0
   10.4592   13.4148   56.4605 H   0  0  0  0  0  0  0  0  0  0  0  0
    6.6316   15.6220   54.6963 H   0  0  0  0  0  0  0  0  0  0  0  0
    5.9983   14.2315   54.1199 H   0  0  0  0  0  0  0  0  0  0  0  0
    6.0594   16.8007   52.7953 H   0  0  0  0  0  0  0  0  0  0  0  0
    4.7842   15.7880   52.9176 H   0  0  0  0  0  0  0  0  0  0  0  0
    5.5112   14.4821   51.2292 H   0  0  0  0  0  0  0  0  0  0  0  0
    6.9846   16.8378   50.8287 H   0  0  0  0  0  0  0  0  0  0  0  0
    8.2447   14.8609   51.2550 H   0  0  0  0  0  0  0  0  0  0  0  0
    7.4458   13.4952   51.6591 H   0  0  0  0  0  0  0  0  0  0  0  0
    9.7299   18.0769   53.0916 H   0  0  0  0  0  0  0  0  0  0  0  0
    9.5718   18.2864   49.0419 H   0  0  0  0  0  0  0  0  0  0  0  0
   10.1029   14.6648   50.7918 H   0  0  0  0  0  0  0  0  0  0  0  0
   12.0901   15.9361   53.6165 H   0  0  0  0  0  0  0  0  0  0  0  0
  1  2  2  0  0  0  0
  2  3  1  0  0  0  0
  3  4  1  0  0  0  0
  4  5  2  0  0  0  0
  5  6  1  0  0  0  0
  6  7  2  0  0  0  0
  7  8  1  0  0  0  0
  8  9  1  0  0  0  0
  9 10  1  0  0  0  0
  9 11  1  0  0  0  0
  9 12  1  0  0  0  0
  7 13  1  0  0  0  0
 13 14  2  0  0  0  0
  2 15  1  0  0  0  0
 15 16  2  0  0  0  0
 16 17  1  0  0  0  0
 17 18  2  0  0  0  0
 18 19  1  0  0  0  0
 19 20  1  0  0  0  0
 20 21  1  0  0  0  0
 21 22  1  0  0  0  0
 22 23  1  0  0  0  0
 22 24  1  0  0  0  0
 18 25  1  0  0  0  0
 25 26  1  0  0  0  0
 26 27  2  0  0  0  0
 27 28  1  0  0  0  0
 28 29  2  0  0  0  0
 29 30  1  0  0  0  0
 30 31  2  0  0  0  0
 25 32  2  0  0  0  0
 14  4  1  0  0  0  0
 32 15  1  0  0  0  0
 24 19  1  0  0  0  0
 31 26  1  0  0  0  0
  3 33  1  0  0  0  0
  5 34  1  0  0  0  0
  6 35  1  0  0  0  0
 13 36  1  0  0  0  0
 14 37  1  0  0  0  0
 16 38  1  0  0  0  0
 20 39  1  0  0  0  0
 20 40  1  0  0  0  0
 21 41  1  0  0  0  0
 21 42  1  0  0  0  0
 22 43  1  0  0  0  0
 23 44  1  0  0  0  0
 24 45  1  0  0  0  0
 24 46  1  0  0  0  0
 27 47  1  0  0  0  0
 29 48  1  0  0  0  0
 31 49  1  0  0  0  0
 32 50  1  0  0  0  0
M  END
> <BIOSOLVEIT.HYDE_ESTIMATED_AFFINITY_LOWER_BOUNDARY [nM]>
21634.386800

> <BIOSOLVEIT.HYDE_ESTIMATED_AFFINITY_UPPER_BOUNDARY [nM]>
2149504.241179

> <BIOSOLVEIT.HYDE_LIGAND_EFFICIENCY range: ++, +, 0, -, -->
--

> <BIOSOLVEIT.HYDE_LIGAND_LIPOPHILIC_EFFICIENCY range: ++, +, 0, -, -->
--

> <BIOSOLVEIT.INTER_CLASH range: red, yellow, green>
yellow

> <BIOSOLVEIT.INTRA_CLASH range: red, yellow, green>
red

> <BIOSOLVEIT.LOGP>
3.2605

> <BIOSOLVEIT.MOLECULAR WEIGHT>
445.399

> <BIOSOLVEIT.MOLECULE_CHECKSUM>
LTIwLjkyNzswLjY1Mzk3

> <BIOSOLVEIT.TORSION_QUALITY range: red, yellow, green, not rotatable>
red

> <BIOSOLVEIT.TPSA>
100.47

$$$$
2QOH_P3Y_1
foHydescor03192112273D 1   1.00000     0.00000     0
Hydescorer 1.1.0 fol007
 48 51  0  0  0  0            999 V2000
   21.6886   13.1559   56.3634 C   0  0  0  0  0  0  0  0  0  0  0  0
   21.9398   14.5522   56.4755 O   0  0  0  0  0  0  0  0  0  0  0  0
   21.7140   15.2275   57.6229 C   0  0  0  0  0  0  0  0  0  0  0  0
   20.7291   14.7613   58.4873 C   0  0  0  0  0  0  0  0  0  0  0  0
   20.4724   15.4347   59.6774 C   0  0  0  0  0  0  0  0  0  0  0  0
   21.2004   16.5745   60.0029 C   0  0  0  0  0  0  0  0  0  0  0  0
   22.1862   17.0408   59.1388 C   0  0  0  0  0  0  0  0  0  0  0  0
   22.4425   16.3676   57.9485 C   0  0  0  0  0  0  0  0  0  0  0  0
   23.4696   16.8542   57.0474 C   0  0  0  0  0  0  0  0  0  0  0  0
   23.4878   16.6529   55.6989 C   0  0  0  0  0  0  0  0  0  0  0  0
   24.6094   17.2635   55.2213 N   0  0  0  0  0  0  0  0  0  0  0  0
   25.2977   17.8445   56.2596 C   0  0  0  0  0  0  0  0  0  0  0  0
   26.4355   18.5523   56.3495 N   0  0  0  0  0  0  0  0  0  0  0  0
   26.8954   19.0219   57.5204 C   0  0  0  0  0  0  0  0  0  0  0  0
   26.2136   18.7992   58.7138 C   0  0  0  0  0  0  0  0  0  0  0  0
   26.6748   19.2916   60.0009 C   0  0  0  0  0  0  0  0  0  0  0  0
   26.1047   18.8536   61.1916 C   0  0  0  0  0  0  0  0  0  0  0  0
   26.5437   19.3193   62.3705 N   0  0  0  0  0  0  0  0  0  0  0  0
   27.5396   20.2150   62.4416 C   0  0  0  0  0  0  0  0  0  0  0  0
   28.1454   20.6869   61.2821 C   0  0  0  0  0  0  0  0  0  0  0  0
   29.2232   21.6550   61.3369 C   0  0  0  0  0  0  0  0  0  0  0  0
   28.9395   22.8826   61.2730 O   0  0  0  0  0  0  0  0  0  0  0  0
   30.6022   21.2497   61.4509 N   0  0  0  0  0  0  0  0  0  0  0  0
   31.6686   22.2548   61.5225 C   0  0  0  0  0  0  0  0  0  0  0  0
   30.9124   19.8328   61.6575 C   0  0  0  0  0  0  0  0  0  0  0  0
   27.7091   20.2204   60.0467 C   0  0  0  0  0  0  0  0  0  0  0  0
   25.0333   18.0696   58.6580 C   0  0  0  0  0  0  0  0  0  0  0  0
   24.6062   17.6094   57.4191 C   0  0  0  0  0  0  0  0  0  0  0  0
   21.9188   12.8488   55.4401 H   0  0  0  0  0  0  0  0  0  0  0  0
   22.2488   12.6621   57.0284 H   0  0  0  0  0  0  0  0  0  0  0  0
   20.7216   12.9758   56.5432 H   0  0  0  0  0  0  0  0  0  0  0  0
   20.2054   13.9422   58.2533 H   0  0  0  0  0  0  0  0  0  0  0  0
   19.7644   15.0993   60.2988 H   0  0  0  0  0  0  0  0  0  0  0  0
   21.0153   17.0587   60.8580 H   0  0  0  0  0  0  0  0  0  0  0  0
   22.7102   17.8596   59.3732 H   0  0  0  0  0  0  0  0  0  0  0  0
   22.8081   16.1526   55.1625 H   0  0  0  0  0  0  0  0  0  0  0  0
   24.8888   17.2854   54.2614 H   0  0  0  0  0  0  0  0  0  0  0  0
   27.7481   19.5441   57.5356 H   0  0  0  0  0  0  0  0  0  0  0  0
   25.3608   18.1856   61.1685 H   0  0  0  0  0  0  0  0  0  0  0  0
   27.8483   20.5454   63.3336 H   0  0  0  0  0  0  0  0  0  0  0  0
   32.5542   21.7965   61.5982 H   0  0  0  0  0  0  0  0  0  0  0  0
   31.6535   22.8163   60.6952 H   0  0  0  0  0  0  0  0  0  0  0  0
   31.5250   22.8367   62.3230 H   0  0  0  0  0  0  0  0  0  0  0  0
   31.9036   19.7136   61.7159 H   0  0  0  0  0  0  0  0  0  0  0  0
   30.4884   19.5191   62.5070 H   0  0  0  0  0  0  0  0  0  0  0  0
   30.5571   19.2985   60.8904 H   0  0  0  0  0  0  0  0  0  0  0  0
   28.1332   20.5484   59.2026 H   0  0  0  0  0  0  0  0  0  0  0  0
   24.5058   17.8808   59.4864 H   0  0  0  0  0  0  0  0  0  0  0  0
  1  2  1  0  0  0  0
  2  3  1  0  0  0  0
  3  4  2  0  0  0  0
  4  5  1  0  0  0  0
  5  6  2  0  0  0  0
  6  7  1  0  0  0  0
  7  8  2  0  0  0  0
  8  9  1  0  0  0  0
  9 10  2  0  0  0  0
 10 11  1  0  0  0  0
 11 12  1  0  0  0  0
 12 13  2  0  0  0  0
 13 14  1  0  0  0  0
 14 15  2  0  0  0  0
 15 16  1  0  0  0  0
 16 17  2  0  0  0  0
 17 18  1  0  0  0  0
 18 19  2  0  0  0  0
 19 20  1  0  0  0  0
 20 21  1  0  0  0  0
 21 22  2  0  0  0  0
 21 23  1  0  0  0  0
 23 24  1  0  0  0  0
 23 25  1  0  0  0  0
 20 26  2  0  0  0  0
 15 27  1  0  0  0  0
 27 28  2  0  0  0  0
  8  3  1  0  0  0  0
 28  9  1  0  0  0  0
 28 12  1  0  0  0  0
 26 16  1  0  0  0  0
  1 29  1  0  0  0  0
  1 30  1  0  0  0  0
  1 31  1  0  0  0  0
  4 32  1  0  0  0  0
  5 33  1  0  0  0  0
  6 34  1  0  0  0  0
  7 35  1  0  0  0  0
 10 36  1  0  0  0  0
 11 37  1  0  0  0  0
 14 38  1  0  0  0  0
 17 39  1  0  0  0  0
 19 40  1  0  0  0  0
 24 41  1  0  0  0  0
 24 42  1  0  0  0  0
 24 43  1  0  0  0  0
 25 44  1  0  0  0  0
 25 45  1  0  0  0  0
 25 46  1  0  0  0  0
 26 47  1  0  0  0  0
 27 48  1  0  0  0  0
M  END
> <BIOSOLVEIT.HYDE_ESTIMATED_AFFINITY_LOWER_BOUNDARY [nM]>
4.978055

> <BIOSOLVEIT.HYDE_ESTIMATED_AFFINITY_UPPER_BOUNDARY [nM]>
494.599230

> <BIOSOLVEIT.HYDE_LIGAND_EFFICIENCY range: ++, +, 0, -, -->
0

> <BIOSOLVEIT.HYDE_LIGAND_LIPOPHILIC_EFFICIENCY range: ++, +, 0, -, -->
-

> <BIOSOLVEIT.INTER_CLASH range: red, yellow, green>
yellow

> <BIOSOLVEIT.INTRA_CLASH range: red, yellow, green>
red

> <BIOSOLVEIT.LOGP>
4.0023

> <BIOSOLVEIT.MOLECULAR WEIGHT>
372.426

> <BIOSOLVEIT.MOLECULE_CHECKSUM>
LTQxLjY5MzM7MS40ODkwNA==

> <BIOSOLVEIT.TORSION_QUALITY range: red, yellow, green, not rotatable>
yellow

> <BIOSOLVEIT.TPSA>
71.11

$$$$
2QOH_P3Y_2
foHydescor03192112273D 1   1.00000     0.00000     0
Hydescorer 1.1.0 fol007
 48 51  0  0  0  0            999 V2000
   21.7069   13.1553   56.3649 C   0  0  0  0  0  0  0  0  0  0  0  0
   21.9549   14.5522   56.4762 O   0  0  0  0  0  0  0  0  0  0  0  0
   21.7244   15.2280   57.6224 C   0  0  0  0  0  0  0  0  0  0  0  0
   20.7383   14.7605   58.4846 C   0  0  0  0  0  0  0  0  0  0  0  0
   20.4769   15.4345   59.6733 C   0  0  0  0  0  0  0  0  0  0  0  0
   21.2014   16.5763   59.9996 C   0  0  0  0  0  0  0  0  0  0  0  0
   22.1884   17.0440   59.1377 C   0  0  0  0  0  0  0  0  0  0  0  0
   22.4495   16.3702   57.9488 C   0  0  0  0  0  0  0  0  0  0  0  0
   23.4779   16.8582   57.0499 C   0  0  0  0  0  0  0  0  0  0  0  0
   23.4991   16.6572   55.7014 C   0  0  0  0  0  0  0  0  0  0  0  0
   24.6209   17.2693   55.2263 N   0  0  0  0  0  0  0  0  0  0  0  0
   25.3064   17.8509   56.2661 C   0  0  0  0  0  0  0  0  0  0  0  0
   26.4432   18.5601   56.3585 N   0  0  0  0  0  0  0  0  0  0  0  0
   26.9000   19.0299   57.5305 C   0  0  0  0  0  0  0  0  0  0  0  0
   26.2161   18.8061   58.7224 C   0  0  0  0  0  0  0  0  0  0  0  0
   26.6740   19.2988   60.0106 C   0  0  0  0  0  0  0  0  0  0  0  0
   26.1173   18.8430   61.2010 C   0  0  0  0  0  0  0  0  0  0  0  0
   26.5531   19.3092   62.3809 N   0  0  0  0  0  0  0  0  0  0  0  0
   27.5328   20.2224   62.4533 C   0  0  0  0  0  0  0  0  0  0  0  0
   28.1248   20.7125   61.2942 C   0  0  0  0  0  0  0  0  0  0  0  0
   29.1850   21.6998   61.3504 C   0  0  0  0  0  0  0  0  0  0  0  0
   28.8834   22.9202   61.2455 O   0  0  0  0  0  0  0  0  0  0  0  0
   30.5668   21.3209   61.5113 N   0  0  0  0  0  0  0  0  0  0  0  0
   31.4784   21.3295   60.3617 C   0  0  0  0  0  0  0  0  0  0  0  0
   31.0874   21.0853   62.8604 C   0  0  0  0  0  0  0  0  0  0  0  0
   27.6914   20.2459   60.0578 C   0  0  0  0  0  0  0  0  0  0  0  0
   25.0367   18.0751   58.6641 C   0  0  0  0  0  0  0  0  0  0  0  0
   24.6127   17.6147   57.4241 C   0  0  0  0  0  0  0  0  0  0  0  0
   21.9404   12.8477   55.4425 H   0  0  0  0  0  0  0  0  0  0  0  0
   22.2664   12.6633   57.0318 H   0  0  0  0  0  0  0  0  0  0  0  0
   20.7398   12.9732   56.5422 H   0  0  0  0  0  0  0  0  0  0  0  0
   20.2171   13.9399   58.2501 H   0  0  0  0  0  0  0  0  0  0  0  0
   19.7680   15.0981   60.2932 H   0  0  0  0  0  0  0  0  0  0  0  0
   21.0129   17.0609   60.8538 H   0  0  0  0  0  0  0  0  0  0  0  0
   22.7100   17.8642   59.3727 H   0  0  0  0  0  0  0  0  0  0  0  0
   22.8211   16.1563   55.1634 H   0  0  0  0  0  0  0  0  0  0  0  0
   24.9023   17.2918   54.2670 H   0  0  0  0  0  0  0  0  0  0  0  0
   27.7521   19.5531   57.5476 H   0  0  0  0  0  0  0  0  0  0  0  0
   25.3856   18.1617   61.1769 H   0  0  0  0  0  0  0  0  0  0  0  0
   27.8395   20.5528   63.3461 H   0  0  0  0  0  0  0  0  0  0  0  0
   32.3893   21.0409   60.6565 H   0  0  0  0  0  0  0  0  0  0  0  0
   31.1391   20.7000   59.6627 H   0  0  0  0  0  0  0  0  0  0  0  0
   31.5279   22.2535   59.9825 H   0  0  0  0  0  0  0  0  0  0  0  0
   32.0533   20.8325   62.8055 H   0  0  0  0  0  0  0  0  0  0  0  0
   30.9912   21.9185   63.4050 H   0  0  0  0  0  0  0  0  0  0  0  0
   30.5729   20.3441   63.2915 H   0  0  0  0  0  0  0  0  0  0  0  0
   28.1057   20.5869   59.2139 H   0  0  0  0  0  0  0  0  0  0  0  0
   24.5077   17.8855   59.4913 H   0  0  0  0  0  0  0  0  0  0  0  0
  1  2  1  0  0  0  0
  2  3  1  0  0  0  0
  3  4  2  0  0  0  0
  4  5  1  0  0  0  0
  5  6  2  0  0  0  0
  6  7  1  0  0  0  0
  7  8  2  0  0  0  0
  8  9  1  0  0  0  0
  9 10  2  0  0  0  0
 10 11  1  0  0  0  0
 11 12  1  0  0  0  0
 12 13  2  0  0  0  0
 13 14  1  0  0  0  0
 14 15  2  0  0  0  0
 15 16  1  0  0  0  0
 16 17  2  0  0  0  0
 17 18  1  0  0  0  0
 18 19  2  0  0  0  0
 19 20  1  0  0  0  0
 20 21  1  0  0  0  0
 21 22  2  0  0  0  0
 21 23  1  0  0  0  0
 23 24  1  0  0  0  0
 23 25  1  0  0  0  0
 20 26  2  0  0  0  0
 15 27  1  0  0  0  0
 27 28  2  0  0  0  0
  8  3  1  0  0  0  0
 28  9  1  0  0  0  0
 28 12  1  0  0  0  0
 26 16  1  0  0  0  0
  1 29  1  0  0  0  0
  1 30  1  0  0  0  0
  1 31  1  0  0  0  0
  4 32  1  0  0  0  0
  5 33  1  0  0  0  0
  6 34  1  0  0  0  0
  7 35  1  0  0  0  0
 10 36  1  0  0  0  0
 11 37  1  0  0  0  0
 14 38  1  0  0  0  0
 17 39  1  0  0  0  0
 19 40  1  0  0  0  0
 24 41  1  0  0  0  0
 24 42  1  0  0  0  0
 24 43  1  0  0  0  0
 25 44  1  0  0  0  0
 25 45  1  0  0  0  0
 25 46  1  0  0  0  0
 26 47  1  0  0  0  0
 27 48  1  0  0  0  0
M  END
> <BIOSOLVEIT.HYDE_ESTIMATED_AFFINITY_LOWER_BOUNDARY [nM]>
8.146146

> <BIOSOLVEIT.HYDE_ESTIMATED_AFFINITY_UPPER_BOUNDARY [nM]>
809.367731

> <BIOSOLVEIT.HYDE_LIGAND_EFFICIENCY range: ++, +, 0, -, -->
0

> <BIOSOLVEIT.HYDE_LIGAND_LIPOPHILIC_EFFICIENCY range: ++, +, 0, -, -->
-

> <BIOSOLVEIT.INTER_CLASH range: red, yellow, green>
yellow

> <BIOSOLVEIT.INTRA_CLASH range: red, yellow, green>
red

> <BIOSOLVEIT.LOGP>
4.0023

> <BIOSOLVEIT.MOLECULAR WEIGHT>
372.426

> <BIOSOLVEIT.MOLECULE_CHECKSUM>
LTQwLjQ3MjQ7MS40NDU0NA==

> <BIOSOLVEIT.TORSION_QUALITY range: red, yellow, green, not rotatable>
red

> <BIOSOLVEIT.TPSA>
71.11

$$$$
2QOH_P3Y_3
foHydescor03192112273D 1   1.00000     0.00000     0
Hydescorer 1.1.0 fol007
 48 51  0  0  0  0            999 V2000
   21.7322   13.1559   56.3768 C   0  0  0  0  0  0  0  0  0  0  0  0
   21.9754   14.5539   56.4850 O   0  0  0  0  0  0  0  0  0  0  0  0
   21.7422   15.2317   57.6295 C   0  0  0  0  0  0  0  0  0  0  0  0
   20.7599   14.7606   58.4942 C   0  0  0  0  0  0  0  0  0  0  0  0
   20.4957   15.4365   59.6813 C   0  0  0  0  0  0  0  0  0  0  0  0
   21.2137   16.5836   60.0034 C   0  0  0  0  0  0  0  0  0  0  0  0
   22.1968   17.0548   59.1390 C   0  0  0  0  0  0  0  0  0  0  0  0
   22.4606   16.3792   57.9517 C   0  0  0  0  0  0  0  0  0  0  0  0
   23.4849   16.8709   57.0502 C   0  0  0  0  0  0  0  0  0  0  0  0
   23.4984   16.6783   55.7004 C   0  0  0  0  0  0  0  0  0  0  0  0
   24.6187   17.2912   55.2229 N   0  0  0  0  0  0  0  0  0  0  0  0
   25.3110   17.8650   56.2626 C   0  0  0  0  0  0  0  0  0  0  0  0
   26.4496   18.5715   56.3531 N   0  0  0  0  0  0  0  0  0  0  0  0
   26.9138   19.0332   57.5254 C   0  0  0  0  0  0  0  0  0  0  0  0
   26.2360   18.8033   58.7197 C   0  0  0  0  0  0  0  0  0  0  0  0
   26.7020   19.2870   60.0084 C   0  0  0  0  0  0  0  0  0  0  0  0
   26.0583   18.9364   61.1906 C   0  0  0  0  0  0  0  0  0  0  0  0
   26.5029   19.3925   62.3711 N   0  0  0  0  0  0  0  0  0  0  0  0
   27.5748   20.1950   62.4521 C   0  0  0  0  0  0  0  0  0  0  0  0
   28.2560   20.5768   61.3014 C   0  0  0  0  0  0  0  0  0  0  0  0
   29.4165   21.4434   61.3668 C   0  0  0  0  0  0  0  0  0  0  0  0
   30.5610   20.9193   61.4494 O   0  0  0  0  0  0  0  0  0  0  0  0
   29.2928   22.8800   61.3508 N   0  0  0  0  0  0  0  0  0  0  0  0
   28.6289   23.5808   62.4555 C   0  0  0  0  0  0  0  0  0  0  0  0
   29.9777   23.6412   60.3032 C   0  0  0  0  0  0  0  0  0  0  0  0
   27.8157   20.1180   60.0645 C   0  0  0  0  0  0  0  0  0  0  0  0
   25.0550   18.0748   58.6633 C   0  0  0  0  0  0  0  0  0  0  0  0
   24.6232   17.6229   57.4229 C   0  0  0  0  0  0  0  0  0  0  0  0
   21.9672   12.8470   55.4552 H   0  0  0  0  0  0  0  0  0  0  0  0
   22.2930   12.6673   57.0451 H   0  0  0  0  0  0  0  0  0  0  0  0
   20.7657   12.9710   56.5540 H   0  0  0  0  0  0  0  0  0  0  0  0
   20.2435   13.9362   58.2626 H   0  0  0  0  0  0  0  0  0  0  0  0
   19.7897   15.0975   60.3029 H   0  0  0  0  0  0  0  0  0  0  0  0
   21.0232   17.0694   60.8564 H   0  0  0  0  0  0  0  0  0  0  0  0
   22.7136   17.8789   59.3710 H   0  0  0  0  0  0  0  0  0  0  0  0
   22.8165   16.1820   55.1631 H   0  0  0  0  0  0  0  0  0  0  0  0
   24.8948   17.3192   54.2622 H   0  0  0  0  0  0  0  0  0  0  0  0
   27.7669   19.5547   57.5412 H   0  0  0  0  0  0  0  0  0  0  0  0
   25.2570   18.3389   61.1602 H   0  0  0  0  0  0  0  0  0  0  0  0
   27.8858   20.5204   63.3450 H   0  0  0  0  0  0  0  0  0  0  0  0
   28.6348   24.5648   62.2774 H   0  0  0  0  0  0  0  0  0  0  0  0
   27.6844   23.2618   62.5330 H   0  0  0  0  0  0  0  0  0  0  0  0
   29.1151   23.3937   63.3092 H   0  0  0  0  0  0  0  0  0  0  0  0
   29.7962   24.6167   60.4273 H   0  0  0  0  0  0  0  0  0  0  0  0
   30.9622   23.4755   60.3603 H   0  0  0  0  0  0  0  0  0  0  0  0
   29.6423   23.3511   59.4070 H   0  0  0  0  0  0  0  0  0  0  0  0
   28.2935   20.3822   59.2266 H   0  0  0  0  0  0  0  0  0  0  0  0
   24.5302   17.8810   59.4922 H   0  0  0  0  0  0  0  0  0  0  0  0
  1  2  1  0  0  0  0
  2  3  1  0  0  0  0
  3  4  2  0  0  0  0
  4  5  1  0  0  0  0
  5  6  2  0  0  0  0
  6  7  1  0  0  0  0
  7  8  2  0  0  0  0
  8  9  1  0  0  0  0
  9 10  2  0  0  0  0
 10 11  1  0  0  0  0
 11 12  1  0  0  0  0
 12 13  2  0  0  0  0
 13 14  1  0  0  0  0
 14 15  2  0  0  0  0
 15 16  1  0  0  0  0
 16 17  2  0  0  0  0
 17 18  1  0  0  0  0
 18 19  2  0  0  0  0
 19 20  1  0  0  0  0
 20 21  1  0  0  0  0
 21 22  2  0  0  0  0
 21 23  1  0  0  0  0
 23 24  1  0  0  0  0
 23 25  1  0  0  0  0
 20 26  2  0  0  0  0
 15 27  1  0  0  0  0
 27 28  2  0  0  0  0
  8  3  1  0  0  0  0
 28  9  1  0  0  0  0
 28 12  1  0  0  0  0
 26 16  1  0  0  0  0
  1 29  1  0  0  0  0
  1 30  1  0  0  0  0
  1 31  1  0  0  0  0
  4 32  1  0  0  0  0
  5 33  1  0  0  0  0
  6 34  1  0  0  0  0
  7 35  1  0  0  0  0
 10 36  1  0  0  0  0
 11 37  1  0  0  0  0
 14 38  1  0  0  0  0
 17 39  1  0  0  0  0
 19 40  1  0  0  0  0
 24 41  1  0  0  0  0
 24 42  1  0  0  0  0
 24 43  1  0  0  0  0
 25 44  1  0  0  0  0
 25 45  1  0  0  0  0
 25 46  1  0  0  0  0
 26 47  1  0  0  0  0
 27 48  1  0  0  0  0
M  END
> <BIOSOLVEIT.HYDE_ESTIMATED_AFFINITY_LOWER_BOUNDARY [nM]>
40.572829

> <BIOSOLVEIT.HYDE_ESTIMATED_AFFINITY_UPPER_BOUNDARY [nM]>
4031.150480

> <BIOSOLVEIT.HYDE_LIGAND_EFFICIENCY range: ++, +, 0, -, -->
0

> <BIOSOLVEIT.HYDE_LIGAND_LIPOPHILIC_EFFICIENCY range: ++, +, 0, -, -->
-

> <BIOSOLVEIT.INTER_CLASH range: red, yellow, green>
yellow

> <BIOSOLVEIT.INTRA_CLASH range: red, yellow, green>
red

> <BIOSOLVEIT.LOGP>
4.0023

> <BIOSOLVEIT.MOLECULAR WEIGHT>
372.426

> <BIOSOLVEIT.MOLECULE_CHECKSUM>
LTM2LjQ5MjM7MS4zMDMz

> <BIOSOLVEIT.TORSION_QUALITY range: red, yellow, green, not rotatable>
red

> <BIOSOLVEIT.TPSA>
71.11

$$$$
3KF4_B90_1
foHydescor03192112273D 1   1.00000     0.00000     0
Hydescorer 1.1.0 fol007
 54 58  0  0  0  0            999 V2000
   21.8302   12.3570   56.6603 C   0  0  0  0  0  0  0  0  0  0  0  0
   20.5652   13.0935   56.2499 C   0  0  0  0  0  0  0  0  0  0  0  0
   19.4462   12.3580   55.8768 C   0  0  0  0  0  0  0  0  0  0  0  0
   18.2783   13.0123   55.4974 C   0  0  0  0  0  0  0  0  0  0  0  0
   18.2062   14.4015   55.4861 C   0  0  0  0  0  0  0  0  0  0  0  0
   17.1977   15.2713   55.1650 N   0  0  0  0  0  0  0  0  0  0  0  0
   17.6311   16.5055   55.3086 N   0  0  0  0  0  0  0  0  0  0  0  0
   18.8826   16.4733   55.7185 C   0  0  0  0  0  0  0  0  0  0  0  0
   19.3129   15.1240   55.8511 C   0  0  0  0  0  0  0  0  0  0  0  0
   20.4891   14.4839   56.2363 C   0  0  0  0  0  0  0  0  0  0  0  0
   21.6577   15.2496   56.6268 C   0  0  0  0  0  0  0  0  0  0  0  0
   22.2462   16.1223   55.7999 C   0  0  0  0  0  0  0  0  0  0  0  0
   23.4042   16.8879   56.1729 N   0  0  0  0  0  0  0  0  0  0  0  0
   24.3909   17.2726   55.3135 C   0  0  0  0  0  0  0  0  0  0  0  0
   25.2812   17.9500   56.0047 N   0  0  0  0  0  0  0  0  0  0  0  0
   24.8716   18.0048   57.3067 C   0  0  0  0  0  0  0  0  0  0  0  0
   25.3769   18.5624   58.4758 C   0  0  0  0  0  0  0  0  0  0  0  0
   26.5885   19.2636   58.4480 N   0  0  0  0  0  0  0  0  0  0  0  0
   27.2138   19.8307   59.6115 C   0  0  0  0  0  0  0  0  0  0  0  0
   26.9807   19.2582   60.8577 C   0  0  0  0  0  0  0  0  0  0  0  0
   27.5794   19.7953   61.9925 C   0  0  0  0  0  0  0  0  0  0  0  0
   28.4077   20.9052   61.8618 C   0  0  0  0  0  0  0  0  0  0  0  0
   29.1720   21.5969   63.2883 P   0  0  0  0  0  0  0  0  0  0  0  0
   30.3261   20.3899   63.9977 C   0  0  0  0  0  0  0  0  0  0  0  0
   30.0811   23.0967   62.8227 C   0  0  0  0  0  0  0  0  0  0  0  0
   28.1294   21.9532   64.3242 O   0  0  0  0  0  0  0  0  0  0  0  0
   28.6428   21.4798   60.6171 C   0  0  0  0  0  0  0  0  0  0  0  0
   28.0428   20.9406   59.4838 C   0  0  0  0  0  0  0  0  0  0  0  0
   24.7183   18.4390   59.6390 N   0  0  0  0  0  0  0  0  0  0  0  0
   23.5555   17.7776   59.7198 C   0  0  0  0  0  0  0  0  0  0  0  0
   23.0437   17.2284   58.6091 N   0  0  0  0  0  0  0  0  0  0  0  0
   23.6788   17.3377   57.4331 C   0  0  0  0  0  0  0  0  0  0  0  0
   22.5398   13.0202   56.8982 H   0  0  0  0  0  0  0  0  0  0  0  0
   21.6366   11.7775   57.4519 H   0  0  0  0  0  0  0  0  0  0  0  0
   22.1464   11.7887   55.9005 H   0  0  0  0  0  0  0  0  0  0  0  0
   19.4806   11.3586   55.8811 H   0  0  0  0  0  0  0  0  0  0  0  0
   17.4784   12.4757   55.2288 H   0  0  0  0  0  0  0  0  0  0  0  0
   16.2790   15.0102   54.8687 H   0  0  0  0  0  0  0  0  0  0  0  0
   19.4460   17.2774   55.9082 H   0  0  0  0  0  0  0  0  0  0  0  0
   22.0358   15.1213   57.5436 H   0  0  0  0  0  0  0  0  0  0  0  0
   21.8642   16.2468   54.8841 H   0  0  0  0  0  0  0  0  0  0  0  0
   24.4303   17.0750   54.3340 H   0  0  0  0  0  0  0  0  0  0  0  0
   27.0462   19.3765   57.5662 H   0  0  0  0  0  0  0  0  0  0  0  0
   26.3828   18.4606   60.9377 H   0  0  0  0  0  0  0  0  0  0  0  0
   27.4163   19.3886   62.8914 H   0  0  0  0  0  0  0  0  0  0  0  0
   30.7612   20.7815   64.8084 H   0  0  0  0  0  0  0  0  0  0  0  0
   29.8269   19.5623   64.2542 H   0  0  0  0  0  0  0  0  0  0  0  0
   31.0262   20.1608   63.3215 H   0  0  0  0  0  0  0  0  0  0  0  0
   30.5149   23.4889   63.6339 H   0  0  0  0  0  0  0  0  0  0  0  0
   30.7825   22.8654   62.1485 H   0  0  0  0  0  0  0  0  0  0  0  0
   29.4470   23.7622   62.4292 H   0  0  0  0  0  0  0  0  0  0  0  0
   29.2408   22.2774   60.5372 H   0  0  0  0  0  0  0  0  0  0  0  0
   28.2061   21.3473   58.5850 H   0  0  0  0  0  0  0  0  0  0  0  0
   23.0774   17.6951   60.5942 H   0  0  0  0  0  0  0  0  0  0  0  0
  1  2  1  0  0  0  0
  2  3  2  0  0  0  0
  3  4  1  0  0  0  0
  4  5  2  0  0  0  0
  5  6  1  0  0  0  0
  6  7  1  0  0  0  0
  7  8  2  0  0  0  0
  8  9  1  0  0  0  0
  9 10  2  0  0  0  0
 10 11  1  0  0  0  0
 11 12  2  0  0  0  0
 12 13  1  0  0  0  0
 13 14  1  0  0  0  0
 14 15  2  0  0  0  0
 15 16  1  0  0  0  0
 16 17  2  0  0  0  0
 17 18  1  0  0  0  0
 18 19  1  0  0  0  0
 19 20  2  0  0  0  0
 20 21  1  0  0  0  0
 21 22  2  0  0  0  0
 22 23  1  0  0  0  0
 23 24  1  0  0  0  0
 23 25  1  0  0  0  0
 23 26  2  0  0  0  0
 22 27  1  0  0  0  0
 27 28  2  0  0  0  0
 17 29  1  0  0  0  0
 29 30  2  0  0  0  0
 30 31  1  0  0  0  0
 31 32  2  0  0  0  0
 10  2  1  0  0  0  0
 32 13  1  0  0  0  0
  9  5  1  0  0  0  0
 32 16  1  0  0  0  0
 28 19  1  0  0  0  0
  1 33  1  0  0  0  0
  1 34  1  0  0  0  0
  1 35  1  0  0  0  0
  3 36  1  0  0  0  0
  4 37  1  0  0  0  0
  6 38  1  0  0  0  0
  8 39  1  0  0  0  0
 11 40  1  0  0  0  0
 12 41  1  0  0  0  0
 14 42  1  0  0  0  0
 18 43  1  0  0  0  0
 20 44  1  0  0  0  0
 21 45  1  0  0  0  0
 24 46  1  0  0  0  0
 24 47  1  0  0  0  0
 24 48  1  0  0  0  0
 25 49  1  0  0  0  0
 25 50  1  0  0  0  0
 25 51  1  0  0  0  0
 27 52  1  0  0  0  0
 28 53  1  0  0  0  0
 30 54  1  0  0  0  0
M  END
> <BIOSOLVEIT.HYDE_ESTIMATED_AFFINITY_LOWER_BOUNDARY [nM]>
1053.779436

> <BIOSOLVEIT.HYDE_ESTIMATED_AFFINITY_UPPER_BOUNDARY [nM]>
104699.217368

> <BIOSOLVEIT.HYDE_LIGAND_EFFICIENCY range: ++, +, 0, -, -->
-

> <BIOSOLVEIT.HYDE_LIGAND_LIPOPHILIC_EFFICIENCY range: ++, +, 0, -, -->
--

> <BIOSOLVEIT.INTER_CLASH range: red, yellow, green>
green

> <BIOSOLVEIT.INTRA_CLASH range: red, yellow, green>
red

> <BIOSOLVEIT.LOGP>
4.63052

> <BIOSOLVEIT.MOLECULAR WEIGHT>
443.449

> <BIOSOLVEIT.MOLECULE_CHECKSUM>
LTI4LjQxODI7MC44ODgwNjk=

> <BIOSOLVEIT.TORSION_QUALITY range: red, yellow, green, not rotatable>
green

> <BIOSOLVEIT.TPSA>
101.38

$$$$
3KF4_B90_2
foHydescor03192112273D 1   1.00000     0.00000     0
Hydescorer 1.1.0 fol007
 54 58  0  0  0  0            999 V2000
   22.2163   13.1108   57.4098 C   0  0  0  0  0  0  0  0  0  0  0  0
   20.9367   13.6815   56.8198 C   0  0  0  0  0  0  0  0  0  0  0  0
   19.8740   12.8250   56.5558 C   0  0  0  0  0  0  0  0  0  0  0  0
   18.6939   13.3266   56.0155 C   0  0  0  0  0  0  0  0  0  0  0  0
   18.5536   14.6816   55.7334 C   0  0  0  0  0  0  0  0  0  0  0  0
   17.5193   15.4146   55.2143 N   0  0  0  0  0  0  0  0  0  0  0  0
   17.8839   16.6764   55.1324 N   0  0  0  0  0  0  0  0  0  0  0  0
   19.1151   16.7950   55.5854 C   0  0  0  0  0  0  0  0  0  0  0  0
   19.6051   15.5230   55.9915 C   0  0  0  0  0  0  0  0  0  0  0  0
   20.7925   15.0369   56.5351 C   0  0  0  0  0  0  0  0  0  0  0  0
   21.9023   15.9291   56.8120 C   0  0  0  0  0  0  0  0  0  0  0  0
   22.7437   16.3378   55.8545 C   0  0  0  0  0  0  0  0  0  0  0  0
   23.8473   17.2214   56.1139 N   0  0  0  0  0  0  0  0  0  0  0  0
   24.8364   17.5117   55.2210 C   0  0  0  0  0  0  0  0  0  0  0  0
   25.6683   18.3470   55.8036 N   0  0  0  0  0  0  0  0  0  0  0  0
   25.2187   18.5975   57.0689 C   0  0  0  0  0  0  0  0  0  0  0  0
   25.6589   19.3732   58.1354 C   0  0  0  0  0  0  0  0  0  0  0  0
   26.8313   20.1287   58.0121 N   0  0  0  0  0  0  0  0  0  0  0  0
   27.7267   20.4036   59.1025 C   0  0  0  0  0  0  0  0  0  0  0  0
   27.5479   19.7435   60.3140 C   0  0  0  0  0  0  0  0  0  0  0  0
   28.4069   19.9984   61.3780 C   0  0  0  0  0  0  0  0  0  0  0  0
   29.4385   20.9167   61.2120 C   0  0  0  0  0  0  0  0  0  0  0  0
   30.5333   21.2507   62.5490 P   0  0  0  0  0  0  0  0  0  0  0  0
   32.1118   20.4041   62.2602 C   0  0  0  0  0  0  0  0  0  0  0  0
   30.8220   23.0384   62.6650 C   0  0  0  0  0  0  0  0  0  0  0  0
   29.9398   20.7612   63.8509 O   0  0  0  0  0  0  0  0  0  0  0  0
   29.6199   21.5783   60.0020 C   0  0  0  0  0  0  0  0  0  0  0  0
   28.7594   21.3214   58.9395 C   0  0  0  0  0  0  0  0  0  0  0  0
   24.9744   19.4103   59.2896 N   0  0  0  0  0  0  0  0  0  0  0  0
   23.8471   18.7056   59.4593 C   0  0  0  0  0  0  0  0  0  0  0  0
   23.3983   17.9475   58.4489 N   0  0  0  0  0  0  0  0  0  0  0  0
   24.0605   17.8931   57.2841 C   0  0  0  0  0  0  0  0  0  0  0  0
   22.8804   13.8470   57.5406 H   0  0  0  0  0  0  0  0  0  0  0  0
   22.0152   12.6828   58.2909 H   0  0  0  0  0  0  0  0  0  0  0  0
   22.5951   12.4272   56.7858 H   0  0  0  0  0  0  0  0  0  0  0  0
   19.9577   11.8485   56.7542 H   0  0  0  0  0  0  0  0  0  0  0  0
   17.9348   12.7034   55.8270 H   0  0  0  0  0  0  0  0  0  0  0  0
   16.6293   15.0493   54.9412 H   0  0  0  0  0  0  0  0  0  0  0  0
   19.6287   17.6516   55.6362 H   0  0  0  0  0  0  0  0  0  0  0  0
   22.0434   16.2492   57.7488 H   0  0  0  0  0  0  0  0  0  0  0  0
   22.5983   16.0148   54.9193 H   0  0  0  0  0  0  0  0  0  0  0  0
   24.9149   17.1538   54.2905 H   0  0  0  0  0  0  0  0  0  0  0  0
   27.0592   20.4992   57.1116 H   0  0  0  0  0  0  0  0  0  0  0  0
   26.8020   19.0858   60.4199 H   0  0  0  0  0  0  0  0  0  0  0  0
   28.2843   19.5272   62.2515 H   0  0  0  0  0  0  0  0  0  0  0  0
   32.7351   20.5928   63.0191 H   0  0  0  0  0  0  0  0  0  0  0  0
   31.9546   19.4186   62.1952 H   0  0  0  0  0  0  0  0  0  0  0  0
   32.5159   20.7341   61.4071 H   0  0  0  0  0  0  0  0  0  0  0  0
   31.4441   23.2270   63.4249 H   0  0  0  0  0  0  0  0  0  0  0  0
   31.2284   23.3664   61.8122 H   0  0  0  0  0  0  0  0  0  0  0  0
   29.9527   23.5070   62.8217 H   0  0  0  0  0  0  0  0  0  0  0  0
   30.3658   22.2359   59.8962 H   0  0  0  0  0  0  0  0  0  0  0  0
   28.8822   21.7924   58.0660 H   0  0  0  0  0  0  0  0  0  0  0  0
   23.3489   18.7447   60.3255 H   0  0  0  0  0  0  0  0  0  0  0  0
  1  2  1  0  0  0  0
  2  3  2  0  0  0  0
  3  4  1  0  0  0  0
  4  5  2  0  0  0  0
  5  6  1  0  0  0  0
  6  7  1  0  0  0  0
  7  8  2  0  0  0  0
  8  9  1  0  0  0  0
  9 10  2  0  0  0  0
 10 11  1  0  0  0  0
 11 12  2  0  0  0  0
 12 13  1  0  0  0  0
 13 14  1  0  0  0  0
 14 15  2  0  0  0  0
 15 16  1  0  0  0  0
 16 17  2  0  0  0  0
 17 18  1  0  0  0  0
 18 19  1  0  0  0  0
 19 20  2  0  0  0  0
 20 21  1  0  0  0  0
 21 22  2  0  0  0  0
 22 23  1  0  0  0  0
 23 24  1  0  0  0  0
 23 25  1  0  0  0  0
 23 26  2  0  0  0  0
 22 27  1  0  0  0  0
 27 28  2  0  0  0  0
 17 29  1  0  0  0  0
 29 30  2  0  0  0  0
 30 31  1  0  0  0  0
 31 32  2  0  0  0  0
 10  2  1  0  0  0  0
 32 13  1  0  0  0  0
  9  5  1  0  0  0  0
 32 16  1  0  0  0  0
 28 19  1  0  0  0  0
  1 33  1  0  0  0  0
  1 34  1  0  0  0  0
  1 35  1  0  0  0  0
  3 36  1  0  0  0  0
  4 37  1  0  0  0  0
  6 38  1  0  0  0  0
  8 39  1  0  0  0  0
 11 40  1  0  0  0  0
 12 41  1  0  0  0  0
 14 42  1  0  0  0  0
 18 43  1  0  0  0  0
 20 44  1  0  0  0  0
 21 45  1  0  0  0  0
 24 46  1  0  0  0  0
 24 47  1  0  0  0  0
 24 48  1  0  0  0  0
 25 49  1  0  0  0  0
 25 50  1  0  0  0  0
 25 51  1  0  0  0  0
 27 52  1  0  0  0  0
 28 53  1  0  0  0  0
 30 54  1  0  0  0  0
M  END
> <BIOSOLVEIT.HYDE_ESTIMATED_AFFINITY_LOWER_BOUNDARY [nM]>
9.724210

> <BIOSOLVEIT.HYDE_ESTIMATED_AFFINITY_UPPER_BOUNDARY [nM]>
966.157743

> <BIOSOLVEIT.HYDE_LIGAND_EFFICIENCY range: ++, +, 0, -, -->
-

> <BIOSOLVEIT.HYDE_LIGAND_LIPOPHILIC_EFFICIENCY range: ++, +, 0, -, -->
-

> <BIOSOLVEIT.INTER_CLASH range: red, yellow, green>
yellow

> <BIOSOLVEIT.INTRA_CLASH range: red, yellow, green>
yellow

> <BIOSOLVEIT.LOGP>
4.63052

> <BIOSOLVEIT.MOLECULAR WEIGHT>
443.449

> <BIOSOLVEIT.MOLECULE_CHECKSUM>
LTQwLjAzMzQ7MS4yNTEwNA==

> <BIOSOLVEIT.TORSION_QUALITY range: red, yellow, green, not rotatable>
yellow

> <BIOSOLVEIT.TPSA>
101.38

$$$$
3KF4_B90_3
foHydescor03192112273D 1   1.00000     0.00000     0
Hydescorer 1.1.0 fol007
 54 58  0  0  0  0            999 V2000
   21.8936   12.4982   56.6889 C   0  0  0  0  0  0  0  0  0  0  0  0
   20.5902   13.1494   56.2553 C   0  0  0  0  0  0  0  0  0  0  0  0
   19.5272   12.3414   55.8684 C   0  0  0  0  0  0  0  0  0  0  0  0
   18.3255   12.9170   55.4677 C   0  0  0  0  0  0  0  0  0  0  0  0
   18.1637   14.2985   55.4483 C   0  0  0  0  0  0  0  0  0  0  0  0
   17.1062   15.0998   55.1072 N   0  0  0  0  0  0  0  0  0  0  0  0
   17.4563   16.3601   55.2515 N   0  0  0  0  0  0  0  0  0  0  0  0
   18.7006   16.4107   55.6810 C   0  0  0  0  0  0  0  0  0  0  0  0
   19.2153   15.0927   55.8270 C   0  0  0  0  0  0  0  0  0  0  0  0
   20.4243   14.5319   56.2335 C   0  0  0  0  0  0  0  0  0  0  0  0
   21.5344   15.3734   56.6384 C   0  0  0  0  0  0  0  0  0  0  0  0
   22.2528   16.0780   55.7557 C   0  0  0  0  0  0  0  0  0  0  0  0
   23.3550   16.9158   56.1421 N   0  0  0  0  0  0  0  0  0  0  0  0
   24.3848   17.2720   55.3218 C   0  0  0  0  0  0  0  0  0  0  0  0
   25.2012   18.0360   56.0139 N   0  0  0  0  0  0  0  0  0  0  0  0
   24.7011   18.1749   57.2774 C   0  0  0  0  0  0  0  0  0  0  0  0
   25.1049   18.8411   58.4291 C   0  0  0  0  0  0  0  0  0  0  0  0
   26.2905   19.5858   58.4255 N   0  0  0  0  0  0  0  0  0  0  0  0
   27.0775   19.8465   59.5997 C   0  0  0  0  0  0  0  0  0  0  0  0
   26.7664   19.1925   60.7875 C   0  0  0  0  0  0  0  0  0  0  0  0
   27.5193   19.4337   61.9319 C   0  0  0  0  0  0  0  0  0  0  0  0
   28.5793   20.3325   61.8696 C   0  0  0  0  0  0  0  0  0  0  0  0
   29.5410   20.6491   63.3092 P   0  0  0  0  0  0  0  0  0  0  0  0
   31.2391   21.0601   62.8203 C   0  0  0  0  0  0  0  0  0  0  0  0
   28.8242   22.0431   64.2234 C   0  0  0  0  0  0  0  0  0  0  0  0
   29.5647   19.4312   64.2053 O   0  0  0  0  0  0  0  0  0  0  0  0
   28.8928   20.9879   60.6835 C   0  0  0  0  0  0  0  0  0  0  0  0
   28.1382   20.7447   59.5405 C   0  0  0  0  0  0  0  0  0  0  0  0
   24.3723   18.7818   59.5523 N   0  0  0  0  0  0  0  0  0  0  0  0
   23.2303   18.0826   59.6087 C   0  0  0  0  0  0  0  0  0  0  0  0
   22.8158   17.4290   58.5141 N   0  0  0  0  0  0  0  0  0  0  0  0
   23.5263   17.4724   57.3776 C   0  0  0  0  0  0  0  0  0  0  0  0
   22.5548   13.2069   56.9346 H   0  0  0  0  0  0  0  0  0  0  0  0
   21.7254   11.9104   57.4803 H   0  0  0  0  0  0  0  0  0  0  0  0
   22.2579   11.9486   55.9370 H   0  0  0  0  0  0  0  0  0  0  0  0
   19.6263   11.3463   55.8782 H   0  0  0  0  0  0  0  0  0  0  0  0
   17.5665   12.3286   55.1893 H   0  0  0  0  0  0  0  0  0  0  0  0
   16.2111   14.7784   54.7980 H   0  0  0  0  0  0  0  0  0  0  0  0
   19.2076   17.2504   55.8754 H   0  0  0  0  0  0  0  0  0  0  0  0
   21.7706   15.4289   57.6085 H   0  0  0  0  0  0  0  0  0  0  0  0
   22.0126   16.0189   54.7867 H   0  0  0  0  0  0  0  0  0  0  0  0
   24.4985   17.0010   54.3659 H   0  0  0  0  0  0  0  0  0  0  0  0
   26.6088   19.9587   57.5539 H   0  0  0  0  0  0  0  0  0  0  0  0
   26.0016   18.5489   60.8185 H   0  0  0  0  0  0  0  0  0  0  0  0
   27.3014   18.9668   62.7888 H   0  0  0  0  0  0  0  0  0  0  0  0
   31.7869   21.2403   63.6373 H   0  0  0  0  0  0  0  0  0  0  0  0
   31.6356   20.2932   62.3157 H   0  0  0  0  0  0  0  0  0  0  0  0
   31.2309   21.8733   62.2385 H   0  0  0  0  0  0  0  0  0  0  0  0
   29.3713   22.2221   65.0411 H   0  0  0  0  0  0  0  0  0  0  0  0
   28.8191   22.8561   63.6413 H   0  0  0  0  0  0  0  0  0  0  0  0
   27.8872   21.8192   64.4917 H   0  0  0  0  0  0  0  0  0  0  0  0
   29.6577   21.6314   60.6526 H   0  0  0  0  0  0  0  0  0  0  0  0
   28.3563   21.2115   58.6835 H   0  0  0  0  0  0  0  0  0  0  0  0
   22.6961   18.0490   60.4535 H   0  0  0  0  0  0  0  0  0  0  0  0
  1  2  1  0  0  0  0
  2  3  2  0  0  0  0
  3  4  1  0  0  0  0
  4  5  2  0  0  0  0
  5  6  1  0  0  0  0
  6  7  1  0  0  0  0
  7  8  2  0  0  0  0
  8  9  1  0  0  0  0
  9 10  2  0  0  0  0
 10 11  1  0  0  0  0
 11 12  2  0  0  0  0
 12 13  1  0  0  0  0
 13 14  1  0  0  0  0
 14 15  2  0  0  0  0
 15 16  1  0  0  0  0
 16 17  2  0  0  0  0
 17 18  1  0  0  0  0
 18 19  1  0  0  0  0
 19 20  2  0  0  0  0
 20 21  1  0  0  0  0
 21 22  2  0  0  0  0
 22 23  1  0  0  0  0
 23 24  1  0  0  0  0
 23 25  1  0  0  0  0
 23 26  2  0  0  0  0
 22 27  1  0  0  0  0
 27 28  2  0  0  0  0
 17 29  1  0  0  0  0
 29 30  2  0  0  0  0
 30 31  1  0  0  0  0
 31 32  2  0  0  0  0
 10  2  1  0  0  0  0
 32 13  1  0  0  0  0
  9  5  1  0  0  0  0
 32 16  1  0  0  0  0
 28 19  1  0  0  0  0
  1 33  1  0  0  0  0
  1 34  1  0  0  0  0
  1 35  1  0  0  0  0
  3 36  1  0  0  0  0
  4 37  1  0  0  0  0
  6 38  1  0  0  0  0
  8 39  1  0  0  0  0
 11 40  1  0  0  0  0
 12 41  1  0  0  0  0
 14 42  1  0  0  0  0
 18 43  1  0  0  0  0
 20 44  1  0  0  0  0
 21 45  1  0  0  0  0
 24 46  1  0  0  0  0
 24 47  1  0  0  0  0
 24 48  1  0  0  0  0
 25 49  1  0  0  0  0
 25 50  1  0  0  0  0
 25 51  1  0  0  0  0
 27 52  1  0  0  0  0
 28 53  1  0  0  0  0
 30 54  1  0  0  0  0
M  END
> <BIOSOLVEIT.HYDE_ESTIMATED_AFFINITY_LOWER_BOUNDARY [nM]>
94.615900

> <BIOSOLVEIT.HYDE_ESTIMATED_AFFINITY_UPPER_BOUNDARY [nM]>
9400.649118

> <BIOSOLVEIT.HYDE_LIGAND_EFFICIENCY range: ++, +, 0, -, -->
-

> <BIOSOLVEIT.HYDE_LIGAND_LIPOPHILIC_EFFICIENCY range: ++, +, 0, -, -->
--

> <BIOSOLVEIT.INTER_CLASH range: red, yellow, green>
green

> <BIOSOLVEIT.INTRA_CLASH range: red, yellow, green>
red

> <BIOSOLVEIT.LOGP>
4.63052

> <BIOSOLVEIT.MOLECULAR WEIGHT>
443.449

> <BIOSOLVEIT.MOLECULE_CHECKSUM>
LTM0LjM5MzM7MS4wNzQ3OQ==

> <BIOSOLVEIT.TORSION_QUALITY range: red, yellow, green, not rotatable>
yellow

> <BIOSOLVEIT.TPSA>
101.38

$$$$
3MS9_MS9_1
foHydescor03192112273D 1   1.00000     0.00000     0
Hydescorer 1.1.0 fol007
 20 20  0  0  0  0            999 V2000
   27.3256   20.1917   58.5498 C   0  0  0  0  0  0  0  0  0  0  0  0
   26.2299   19.2853   58.5856 O   0  0  0  0  0  0  0  0  0  0  0  0
   25.6300   18.7798   57.4273 C   0  0  0  0  0  0  0  0  0  0  0  0
   26.1070   19.0627   56.2941 O   0  0  0  0  0  0  0  0  0  0  0  0
   24.4966   17.8827   57.5441 C   0  0  0  0  0  0  0  0  0  0  0  0
   23.8811   17.7458   58.7844 C   0  0  0  0  0  0  0  0  0  0  0  0
   22.7913   16.8935   58.9300 C   0  0  0  0  0  0  0  0  0  0  0  0
   22.3262   16.1831   57.8278 C   0  0  0  0  0  0  0  0  0  0  0  0
   20.9321   15.0907   58.0083 Cl  0  0  0  0  0  0  0  0  0  0  0  0
   22.9371   16.3152   56.5849 C   0  0  0  0  0  0  0  0  0  0  0  0
   24.0265   17.1694   56.4455 C   0  0  0  0  0  0  0  0  0  0  0  0
   24.6284   17.2897   55.1868 N   0  0  0  0  0  0  0  0  0  0  0  0
   27.5970   20.4236   59.4839 H   0  0  0  0  0  0  0  0  0  0  0  0
   28.0956   19.7653   58.0752 H   0  0  0  0  0  0  0  0  0  0  0  0
   27.0545   21.0234   58.0653 H   0  0  0  0  0  0  0  0  0  0  0  0
   24.2221   18.2602   59.5712 H   0  0  0  0  0  0  0  0  0  0  0  0
   22.3458   16.7923   59.8195 H   0  0  0  0  0  0  0  0  0  0  0  0
   22.5960   15.8006   55.7982 H   0  0  0  0  0  0  0  0  0  0  0  0
   25.1367   18.1184   54.9529 H   0  0  0  0  0  0  0  0  0  0  0  0
   24.5499   16.5468   54.5220 H   0  0  0  0  0  0  0  0  0  0  0  0
  1  2  1  0  0  0  0
  2  3  1  0  0  0  0
  3  4  2  0  0  0  0
  3  5  1  0  0  0  0
  5  6  2  0  0  0  0
  6  7  1  0  0  0  0
  7  8  2  0  0  0  0
  8  9  1  0  0  0  0
  8 10  1  0  0  0  0
 10 11  2  0  0  0  0
 11 12  1  0  0  0  0
 11  5  1  0  0  0  0
  1 13  1  0  0  0  0
  1 14  1  0  0  0  0
  1 15  1  0  0  0  0
  6 16  1  0  0  0  0
  7 17  1  0  0  0  0
 10 18  1  0  0  0  0
 12 19  1  0  0  0  0
 12 20  1  0  0  0  0
M  END
> <BIOSOLVEIT.HYDE_ESTIMATED_AFFINITY_LOWER_BOUNDARY [nM]>
33718.536772

> <BIOSOLVEIT.HYDE_ESTIMATED_AFFINITY_UPPER_BOUNDARY [nM]>
3350135.988059

> <BIOSOLVEIT.HYDE_LIGAND_EFFICIENCY range: ++, +, 0, -, -->
0

> <BIOSOLVEIT.HYDE_LIGAND_LIPOPHILIC_EFFICIENCY range: ++, +, 0, -, -->
--

> <BIOSOLVEIT.INTER_CLASH range: red, yellow, green>
green

> <BIOSOLVEIT.INTRA_CLASH range: red, yellow, green>
green

> <BIOSOLVEIT.LOGP>
1.7088

> <BIOSOLVEIT.MOLECULAR WEIGHT>
185.609

> <BIOSOLVEIT.MOLECULE_CHECKSUM>
LTE5LjgyNzsxLjY1MjI1

> <BIOSOLVEIT.TORSION_QUALITY range: red, yellow, green, not rotatable>
green

> <BIOSOLVEIT.TPSA>
52.32

$$$$
3MS9_MS9_2
foHydescor03192112273D 1   1.00000     0.00000     0
Hydescorer 1.1.0 fol007
 20 20  0  0  0  0            999 V2000
   27.1365   20.0276   58.3773 C   0  0  0  0  0  0  0  0  0  0  0  0
   25.7934   19.6089   58.1665 O   0  0  0  0  0  0  0  0  0  0  0  0
   25.4483   18.6161   57.2431 C   0  0  0  0  0  0  0  0  0  0  0  0
   26.1541   18.4391   56.2126 O   0  0  0  0  0  0  0  0  0  0  0  0
   24.3118   17.7562   57.5116 C   0  0  0  0  0  0  0  0  0  0  0  0
   23.7927   17.7225   58.8022 C   0  0  0  0  0  0  0  0  0  0  0  0
   22.7027   16.9085   59.0926 C   0  0  0  0  0  0  0  0  0  0  0  0
   22.1403   16.1322   58.0841 C   0  0  0  0  0  0  0  0  0  0  0  0
   20.7454   15.0884   58.4503 Cl  0  0  0  0  0  0  0  0  0  0  0  0
   22.6545   16.1610   56.7917 C   0  0  0  0  0  0  0  0  0  0  0  0
   23.7446   16.9774   56.5072 C   0  0  0  0  0  0  0  0  0  0  0  0
   24.2483   16.9937   55.2008 N   0  0  0  0  0  0  0  0  0  0  0  0
   27.1569   20.7425   59.0763 H   0  0  0  0  0  0  0  0  0  0  0  0
   27.6847   19.2485   58.6812 H   0  0  0  0  0  0  0  0  0  0  0  0
   27.5119   20.3862   57.5226 H   0  0  0  0  0  0  0  0  0  0  0  0
   24.2034   18.2835   59.5210 H   0  0  0  0  0  0  0  0  0  0  0  0
   22.3264   16.8815   60.0187 H   0  0  0  0  0  0  0  0  0  0  0  0
   22.2440   15.5996   56.0732 H   0  0  0  0  0  0  0  0  0  0  0  0
   25.1589   17.3657   55.0207 H   0  0  0  0  0  0  0  0  0  0  0  0
   23.6975   16.6332   54.4481 H   0  0  0  0  0  0  0  0  0  0  0  0
  1  2  1  0  0  0  0
  2  3  1  0  0  0  0
  3  4  2  0  0  0  0
  3  5  1  0  0  0  0
  5  6  2  0  0  0  0
  6  7  1  0  0  0  0
  7  8  2  0  0  0  0
  8  9  1  0  0  0  0
  8 10  1  0  0  0  0
 10 11  2  0  0  0  0
 11 12  1  0  0  0  0
 11  5  1  0  0  0  0
  1 13  1  0  0  0  0
  1 14  1  0  0  0  0
  1 15  1  0  0  0  0
  6 16  1  0  0  0  0
  7 17  1  0  0  0  0
 10 18  1  0  0  0  0
 12 19  1  0  0  0  0
 12 20  1  0  0  0  0
M  END
> <BIOSOLVEIT.HYDE_ESTIMATED_AFFINITY_LOWER_BOUNDARY [nM]>
4132.754911

> <BIOSOLVEIT.HYDE_ESTIMATED_AFFINITY_UPPER_BOUNDARY [nM]>
410613.635216

> <BIOSOLVEIT.HYDE_LIGAND_EFFICIENCY range: ++, +, 0, -, -->
+

> <BIOSOLVEIT.HYDE_LIGAND_LIPOPHILIC_EFFICIENCY range: ++, +, 0, -, -->
-

> <BIOSOLVEIT.INTER_CLASH range: red, yellow, green>
green

> <BIOSOLVEIT.INTRA_CLASH range: red, yellow, green>
green

> <BIOSOLVEIT.LOGP>
1.7088

> <BIOSOLVEIT.MOLECULAR WEIGHT>
185.609

> <BIOSOLVEIT.MOLECULE_CHECKSUM>
LTI1LjAzMDY7Mi4wODU4OA==

> <BIOSOLVEIT.TORSION_QUALITY range: red, yellow, green, not rotatable>
yellow

> <BIOSOLVEIT.TPSA>
52.32

$$$$
3MS9_MS9_3
foHydescor03192112273D 1   1.00000     0.00000     0
Hydescorer 1.1.0 fol007
 20 20  0  0  0  0            999 V2000
   27.0115   19.7985   57.8316 C   0  0  0  0  0  0  0  0  0  0  0  0
   25.8651   18.9843   58.0469 O   0  0  0  0  0  0  0  0  0  0  0  0
   25.2573   18.2503   57.0227 C   0  0  0  0  0  0  0  0  0  0  0  0
   25.7515   18.2566   55.8621 O   0  0  0  0  0  0  0  0  0  0  0  0
   24.0940   17.4374   57.3213 C   0  0  0  0  0  0  0  0  0  0  0  0
   23.5925   17.4442   58.6192 C   0  0  0  0  0  0  0  0  0  0  0  0
   22.4775   16.6757   58.9383 C   0  0  0  0  0  0  0  0  0  0  0  0
   21.8731   15.9041   57.9509 C   0  0  0  0  0  0  0  0  0  0  0  0
   20.4463   14.9184   58.3536 Cl  0  0  0  0  0  0  0  0  0  0  0  0
   22.3695   15.8925   56.6513 C   0  0  0  0  0  0  0  0  0  0  0  0
   23.4846   16.6634   56.3382 C   0  0  0  0  0  0  0  0  0  0  0  0
   23.9699   16.6393   55.0250 N   0  0  0  0  0  0  0  0  0  0  0  0
   27.2796   20.2310   58.6924 H   0  0  0  0  0  0  0  0  0  0  0  0
   27.7638   19.2324   57.4944 H   0  0  0  0  0  0  0  0  0  0  0  0
   26.7970   20.5043   57.1565 H   0  0  0  0  0  0  0  0  0  0  0  0
   24.0335   18.0014   59.3227 H   0  0  0  0  0  0  0  0  0  0  0  0
   22.1135   16.6780   59.8697 H   0  0  0  0  0  0  0  0  0  0  0  0
   21.9285   15.3347   55.9481 H   0  0  0  0  0  0  0  0  0  0  0  0
   24.7496   17.2109   54.7695 H   0  0  0  0  0  0  0  0  0  0  0  0
   23.5367   16.0506   54.3425 H   0  0  0  0  0  0  0  0  0  0  0  0
  1  2  1  0  0  0  0
  2  3  1  0  0  0  0
  3  4  2  0  0  0  0
  3  5  1  0  0  0  0
  5  6  2  0  0  0  0
  6  7  1  0  0  0  0
  7  8  2  0  0  0  0
  8  9  1  0  0  0  0
  8 10  1  0  0  0  0
 10 11  2  0  0  0  0
 11 12  1  0  0  0  0
 11  5  1  0  0  0  0
  1 13  1  0  0  0  0
  1 14  1  0  0  0  0
  1 15  1  0  0  0  0
  6 16  1  0  0  0  0
  7 17  1  0  0  0  0
 10 18  1  0  0  0  0
 12 19  1  0  0  0  0
 12 20  1  0  0  0  0
M  END
> <BIOSOLVEIT.HYDE_ESTIMATED_AFFINITY_LOWER_BOUNDARY [nM]>
804.867835

> <BIOSOLVEIT.HYDE_ESTIMATED_AFFINITY_UPPER_BOUNDARY [nM]>
79968.378203

> <BIOSOLVEIT.HYDE_LIGAND_EFFICIENCY range: ++, +, 0, -, -->
++

> <BIOSOLVEIT.HYDE_LIGAND_LIPOPHILIC_EFFICIENCY range: ++, +, 0, -, -->
-

> <BIOSOLVEIT.INTER_CLASH range: red, yellow, green>
green

> <BIOSOLVEIT.INTRA_CLASH range: red, yellow, green>
green

> <BIOSOLVEIT.LOGP>
1.7088

> <BIOSOLVEIT.MOLECULAR WEIGHT>
185.609

> <BIOSOLVEIT.MOLECULE_CHECKSUM>
LTI5LjA4NjI7Mi40MjM4NQ==

> <BIOSOLVEIT.TORSION_QUALITY range: red, yellow, green, not rotatable>
green

> <BIOSOLVEIT.TPSA>
52.32

$$$$
3K5V_STJ_1
foHydescor03192112273D 1   1.00000     0.00000     0
Hydescorer 1.1.0 fol007
 40 42  0  0  0  0            999 V2000
   28.0146   21.1126   60.9975 N   0  0  0  0  0  0  0  0  0  0  0  0
   27.2678   19.8929   60.9838 C   0  0  0  0  0  0  0  0  0  0  0  0
   27.2099   19.2036   62.0381 O   0  0  0  0  0  0  0  0  0  0  0  0
   26.5520   19.4355   59.7670 C   0  0  0  0  0  0  0  0  0  0  0  0
   26.9766   19.8618   58.5129 C   0  0  0  0  0  0  0  0  0  0  0  0
   26.2933   19.4226   57.3834 C   0  0  0  0  0  0  0  0  0  0  0  0
   25.2003   18.5696   57.4944 C   0  0  0  0  0  0  0  0  0  0  0  0
   24.7931   18.1552   58.7588 C   0  0  0  0  0  0  0  0  0  0  0  0
   23.6547   17.2654   58.8864 C   0  0  0  0  0  0  0  0  0  0  0  0
   23.1752   16.6130   57.7553 C   0  0  0  0  0  0  0  0  0  0  0  0
   22.0829   15.7621   57.8888 C   0  0  0  0  0  0  0  0  0  0  0  0
   21.5913   15.1005   56.7562 N   0  0  0  0  0  0  0  0  0  0  0  0
   20.3106   15.3689   56.1604 C   0  0  0  0  0  0  0  0  0  0  0  0
   20.1058   16.5663   55.4820 C   0  0  0  0  0  0  0  0  0  0  0  0
   18.8698   16.8346   54.9020 C   0  0  0  0  0  0  0  0  0  0  0  0
   17.8504   15.8945   55.0108 C   0  0  0  0  0  0  0  0  0  0  0  0
   16.6468   16.1430   54.4534 O   0  0  0  0  0  0  0  0  0  0  0  0
   16.0173   15.3380   53.4588 C   0  0  0  0  0  0  0  0  0  0  0  0
   15.8152   14.0570   53.9402 F   0  0  0  0  0  0  0  0  0  0  0  0
   16.7965   15.2954   52.3164 F   0  0  0  0  0  0  0  0  0  0  0  0
   14.7927   15.8931   53.1422 F   0  0  0  0  0  0  0  0  0  0  0  0
   18.0460   14.6945   55.6880 C   0  0  0  0  0  0  0  0  0  0  0  0
   19.2849   14.4345   56.2644 C   0  0  0  0  0  0  0  0  0  0  0  0
   21.5274   15.5965   59.0989 N   0  0  0  0  0  0  0  0  0  0  0  0
   22.0010   16.2324   60.1811 C   0  0  0  0  0  0  0  0  0  0  0  0
   23.0536   17.0563   60.0673 N   0  0  0  0  0  0  0  0  0  0  0  0
   25.4617   18.5823   59.9016 C   0  0  0  0  0  0  0  0  0  0  0  0
   28.4101   21.4663   60.1498 H   0  0  0  0  0  0  0  0  0  0  0  0
   28.1412   21.6117   61.8547 H   0  0  0  0  0  0  0  0  0  0  0  0
   27.7614   20.4751   58.4244 H   0  0  0  0  0  0  0  0  0  0  0  0
   26.5925   19.7245   56.4782 H   0  0  0  0  0  0  0  0  0  0  0  0
   24.7143   18.2587   56.6777 H   0  0  0  0  0  0  0  0  0  0  0  0
   23.6070   16.7529   56.8642 H   0  0  0  0  0  0  0  0  0  0  0  0
   22.1665   14.3985   56.3363 H   0  0  0  0  0  0  0  0  0  0  0  0
   20.8469   17.2340   55.4113 H   0  0  0  0  0  0  0  0  0  0  0  0
   18.7163   17.6931   54.4126 H   0  0  0  0  0  0  0  0  0  0  0  0
   17.3048   14.0271   55.7593 H   0  0  0  0  0  0  0  0  0  0  0  0
   19.4383   13.5760   56.7537 H   0  0  0  0  0  0  0  0  0  0  0  0
   21.5695   16.0924   61.0723 H   0  0  0  0  0  0  0  0  0  0  0  0
   25.1628   18.2802   60.8068 H   0  0  0  0  0  0  0  0  0  0  0  0
  1  2  1  0  0  0  0
  2  3  2  0  0  0  0
  2  4  1  0  0  0  0
  4  5  2  0  0  0  0
  5  6  1  0  0  0  0
  6  7  2  0  0  0  0
  7  8  1  0  0  0  0
  8  9  1  0  0  0  0
  9 10  2  0  0  0  0
 10 11  1  0  0  0  0
 11 12  1  0  0  0  0
 12 13  1  0  0  0  0
 13 14  2  0  0  0  0
 14 15  1  0  0  0  0
 15 16  2  0  0  0  0
 16 17  1  0  0  0  0
 17 18  1  0  0  0  0
 18 19  1  0  0  0  0
 18 20  1  0  0  0  0
 18 21  1  0  0  0  0
 16 22  1  0  0  0  0
 22 23  2  0  0  0  0
 11 24  2  0  0  0  0
 24 25  1  0  0  0  0
 25 26  2  0  0  0  0
  8 27  2  0  0  0  0
 27  4  1  0  0  0  0
 26  9  1  0  0  0  0
 23 13  1  0  0  0  0
  1 28  1  0  0  0  0
  1 29  1  0  0  0  0
  5 30  1  0  0  0  0
  6 31  1  0  0  0  0
  7 32  1  0  0  0  0
 10 33  1  0  0  0  0
 12 34  1  0  0  0  0
 14 35  1  0  0  0  0
 15 36  1  0  0  0  0
 22 37  1  0  0  0  0
 23 38  1  0  0  0  0
 25 39  1  0  0  0  0
 27 40  1  0  0  0  0
M  END
> <BIOSOLVEIT.HYDE_ESTIMATED_AFFINITY_LOWER_BOUNDARY [nM]>
152719.375062

> <BIOSOLVEIT.HYDE_ESTIMATED_AFFINITY_UPPER_BOUNDARY [nM]>
15173572.860840

> <BIOSOLVEIT.HYDE_LIGAND_EFFICIENCY range: ++, +, 0, -, -->
--

> <BIOSOLVEIT.HYDE_LIGAND_LIPOPHILIC_EFFICIENCY range: ++, +, 0, -, -->
--

> <BIOSOLVEIT.INTER_CLASH range: red, yellow, green>
yellow

> <BIOSOLVEIT.INTRA_CLASH range: red, yellow, green>
green

> <BIOSOLVEIT.LOGP>
3.8847

> <BIOSOLVEIT.MOLECULAR WEIGHT>
374.321

> <BIOSOLVEIT.MOLECULE_CHECKSUM>
LTE2LjA4MjQ7MC41OTU2NDM=

> <BIOSOLVEIT.TORSION_QUALITY range: red, yellow, green, not rotatable>
red

> <BIOSOLVEIT.TPSA>
90.13

$$$$
3K5V_STJ_2
foHydescor03192112273D 1   1.00000     0.00000     0
Hydescorer 1.1.0 fol007
 40 42  0  0  0  0            999 V2000
   27.7085   20.8294   61.3340 N   0  0  0  0  0  0  0  0  0  0  0  0
   26.8733   19.6790   61.1766 C   0  0  0  0  0  0  0  0  0  0  0  0
   26.6152   18.9720   62.1883 O   0  0  0  0  0  0  0  0  0  0  0  0
   26.2960   19.3141   59.8591 C   0  0  0  0  0  0  0  0  0  0  0  0
   26.8712   19.8053   58.6915 C   0  0  0  0  0  0  0  0  0  0  0  0
   26.3164   19.4525   57.4654 C   0  0  0  0  0  0  0  0  0  0  0  0
   25.2030   18.6217   57.3959 C   0  0  0  0  0  0  0  0  0  0  0  0
   24.6443   18.1415   58.5763 C   0  0  0  0  0  0  0  0  0  0  0  0
   23.4833   17.2740   58.5156 C   0  0  0  0  0  0  0  0  0  0  0  0
   23.1302   16.6995   57.2990 C   0  0  0  0  0  0  0  0  0  0  0  0
   22.0150   15.8694   57.2520 C   0  0  0  0  0  0  0  0  0  0  0  0
   21.6499   15.2862   56.0318 N   0  0  0  0  0  0  0  0  0  0  0  0
   20.2916   15.1441   55.5826 C   0  0  0  0  0  0  0  0  0  0  0  0
   19.5579   16.2767   55.2441 C   0  0  0  0  0  0  0  0  0  0  0  0
   18.2425   16.1489   54.8082 C   0  0  0  0  0  0  0  0  0  0  0  0
   17.6775   14.8811   54.7175 C   0  0  0  0  0  0  0  0  0  0  0  0
   16.4027   14.7438   54.2969 O   0  0  0  0  0  0  0  0  0  0  0  0
   15.8469   15.3592   53.1368 C   0  0  0  0  0  0  0  0  0  0  0  0
   16.5331   14.9527   52.0065 F   0  0  0  0  0  0  0  0  0  0  0  0
   15.9041   16.7365   53.2539 F   0  0  0  0  0  0  0  0  0  0  0  0
   14.5249   14.9771   53.0167 F   0  0  0  0  0  0  0  0  0  0  0  0
   18.4037   13.7428   55.0546 C   0  0  0  0  0  0  0  0  0  0  0  0
   19.7179   13.8798   55.4891 C   0  0  0  0  0  0  0  0  0  0  0  0
   21.3169   15.6482   58.3762 N   0  0  0  0  0  0  0  0  0  0  0  0
   21.6697   16.2091   59.5427 C   0  0  0  0  0  0  0  0  0  0  0  0
   22.7426   17.0121   59.6031 N   0  0  0  0  0  0  0  0  0  0  0  0
   25.1827   18.4816   59.8131 C   0  0  0  0  0  0  0  0  0  0  0  0
   28.0780   21.2929   60.5286 H   0  0  0  0  0  0  0  0  0  0  0  0
   27.9229   21.1702   62.2494 H   0  0  0  0  0  0  0  0  0  0  0  0
   27.6717   20.4032   58.7330 H   0  0  0  0  0  0  0  0  0  0  0  0
   26.7240   19.8015   56.6216 H   0  0  0  0  0  0  0  0  0  0  0  0
   24.8098   18.3731   56.5107 H   0  0  0  0  0  0  0  0  0  0  0  0
   23.6672   16.8796   56.4749 H   0  0  0  0  0  0  0  0  0  0  0  0
   22.3788   14.9479   55.4367 H   0  0  0  0  0  0  0  0  0  0  0  0
   19.9756   17.1826   55.3141 H   0  0  0  0  0  0  0  0  0  0  0  0
   17.7098   16.9589   54.5630 H   0  0  0  0  0  0  0  0  0  0  0  0
   17.9856   12.8370   54.9854 H   0  0  0  0  0  0  0  0  0  0  0  0
   20.2505   13.0697   55.7341 H   0  0  0  0  0  0  0  0  0  0  0  0
   21.1330   16.0287   60.3670 H   0  0  0  0  0  0  0  0  0  0  0  0
   24.7752   18.1325   60.6569 H   0  0  0  0  0  0  0  0  0  0  0  0
  1  2  1  0  0  0  0
  2  3  2  0  0  0  0
  2  4  1  0  0  0  0
  4  5  2  0  0  0  0
  5  6  1  0  0  0  0
  6  7  2  0  0  0  0
  7  8  1  0  0  0  0
  8  9  1  0  0  0  0
  9 10  2  0  0  0  0
 10 11  1  0  0  0  0
 11 12  1  0  0  0  0
 12 13  1  0  0  0  0
 13 14  2  0  0  0  0
 14 15  1  0  0  0  0
 15 16  2  0  0  0  0
 16 17  1  0  0  0  0
 17 18  1  0  0  0  0
 18 19  1  0  0  0  0
 18 20  1  0  0  0  0
 18 21  1  0  0  0  0
 16 22  1  0  0  0  0
 22 23  2  0  0  0  0
 11 24  2  0  0  0  0
 24 25  1  0  0  0  0
 25 26  2  0  0  0  0
  8 27  2  0  0  0  0
 27  4  1  0  0  0  0
 26  9  1  0  0  0  0
 23 13  1  0  0  0  0
  1 28  1  0  0  0  0
  1 29  1  0  0  0  0
  5 30  1  0  0  0  0
  6 31  1  0  0  0  0
  7 32  1  0  0  0  0
 10 33  1  0  0  0  0
 12 34  1  0  0  0  0
 14 35  1  0  0  0  0
 15 36  1  0  0  0  0
 22 37  1  0  0  0  0
 23 38  1  0  0  0  0
 25 39  1  0  0  0  0
 27 40  1  0  0  0  0
M  END
> <BIOSOLVEIT.HYDE_ESTIMATED_AFFINITY_LOWER_BOUNDARY [nM]>
680835.284624

> <BIOSOLVEIT.HYDE_ESTIMATED_AFFINITY_UPPER_BOUNDARY [nM]>
67645010.944169

> <BIOSOLVEIT.HYDE_LIGAND_EFFICIENCY range: ++, +, 0, -, -->
--

> <BIOSOLVEIT.HYDE_LIGAND_LIPOPHILIC_EFFICIENCY range: ++, +, 0, -, -->
--

> <BIOSOLVEIT.INTER_CLASH range: red, yellow, green>
green

> <BIOSOLVEIT.INTRA_CLASH range: red, yellow, green>
green

> <BIOSOLVEIT.LOGP>
3.8847

> <BIOSOLVEIT.MOLECULAR WEIGHT>
374.321

> <BIOSOLVEIT.MOLECULE_CHECKSUM>
LTEyLjM3NzswLjQ1ODQwOA==

> <BIOSOLVEIT.TORSION_QUALITY range: red, yellow, green, not rotatable>
red

> <BIOSOLVEIT.TPSA>
90.13

$$$$
3K5V_STJ_3
foHydescor03192112273D 1   1.00000     0.00000     0
Hydescorer 1.1.0 fol007
 40 42  0  0  0  0            999 V2000
   27.7085   20.8296   61.3342 N   0  0  0  0  0  0  0  0  0  0  0  0
   26.8734   19.6791   61.1767 C   0  0  0  0  0  0  0  0  0  0  0  0
   26.6155   18.9720   62.1885 O   0  0  0  0  0  0  0  0  0  0  0  0
   26.2963   19.3142   59.8592 C   0  0  0  0  0  0  0  0  0  0  0  0
   26.8715   19.8054   58.6917 C   0  0  0  0  0  0  0  0  0  0  0  0
   26.3166   19.4525   57.4656 C   0  0  0  0  0  0  0  0  0  0  0  0
   25.2033   18.6217   57.3960 C   0  0  0  0  0  0  0  0  0  0  0  0
   24.6444   18.1417   58.5764 C   0  0  0  0  0  0  0  0  0  0  0  0
   23.4835   17.2742   58.5157 C   0  0  0  0  0  0  0  0  0  0  0  0
   23.1304   16.6998   57.2991 C   0  0  0  0  0  0  0  0  0  0  0  0
   22.0151   15.8697   57.2519 C   0  0  0  0  0  0  0  0  0  0  0  0
   21.6500   15.2867   56.0318 N   0  0  0  0  0  0  0  0  0  0  0  0
   20.2917   15.1444   55.5826 C   0  0  0  0  0  0  0  0  0  0  0  0
   19.5578   16.2770   55.2443 C   0  0  0  0  0  0  0  0  0  0  0  0
   18.2425   16.1491   54.8084 C   0  0  0  0  0  0  0  0  0  0  0  0
   17.6777   14.8812   54.7176 C   0  0  0  0  0  0  0  0  0  0  0  0
   16.4029   14.7437   54.2969 O   0  0  0  0  0  0  0  0  0  0  0  0
   15.8470   15.3591   53.1369 C   0  0  0  0  0  0  0  0  0  0  0  0
   16.5332   14.9527   52.0066 F   0  0  0  0  0  0  0  0  0  0  0  0
   15.9040   16.7364   53.2539 F   0  0  0  0  0  0  0  0  0  0  0  0
   14.5249   14.9768   53.0167 F   0  0  0  0  0  0  0  0  0  0  0  0
   18.4040   13.7429   55.0544 C   0  0  0  0  0  0  0  0  0  0  0  0
   19.7181   13.8802   55.4889 C   0  0  0  0  0  0  0  0  0  0  0  0
   21.3169   15.6484   58.3762 N   0  0  0  0  0  0  0  0  0  0  0  0
   21.6698   16.2092   59.5427 C   0  0  0  0  0  0  0  0  0  0  0  0
   22.7428   17.0123   59.6031 N   0  0  0  0  0  0  0  0  0  0  0  0
   25.1829   18.4818   59.8133 C   0  0  0  0  0  0  0  0  0  0  0  0
   28.0780   21.2932   60.5289 H   0  0  0  0  0  0  0  0  0  0  0  0
   27.9229   21.1703   62.2495 H   0  0  0  0  0  0  0  0  0  0  0  0
   27.6719   20.4033   58.7330 H   0  0  0  0  0  0  0  0  0  0  0  0
   26.7243   19.8014   56.6218 H   0  0  0  0  0  0  0  0  0  0  0  0
   24.8104   18.3730   56.5107 H   0  0  0  0  0  0  0  0  0  0  0  0
   23.6674   16.8801   56.4749 H   0  0  0  0  0  0  0  0  0  0  0  0
   22.3789   14.9486   55.4365 H   0  0  0  0  0  0  0  0  0  0  0  0
   19.9755   17.1829   55.3143 H   0  0  0  0  0  0  0  0  0  0  0  0
   17.7097   16.9591   54.5634 H   0  0  0  0  0  0  0  0  0  0  0  0
   17.9860   12.8371   54.9849 H   0  0  0  0  0  0  0  0  0  0  0  0
   20.2509   13.0701   55.7339 H   0  0  0  0  0  0  0  0  0  0  0  0
   21.1332   16.0287   60.3671 H   0  0  0  0  0  0  0  0  0  0  0  0
   24.7754   18.1328   60.6572 H   0  0  0  0  0  0  0  0  0  0  0  0
  1  2  1  0  0  0  0
  2  3  2  0  0  0  0
  2  4  1  0  0  0  0
  4  5  2  0  0  0  0
  5  6  1  0  0  0  0
  6  7  2  0  0  0  0
  7  8  1  0  0  0  0
  8  9  1  0  0  0  0
  9 10  2  0  0  0  0
 10 11  1  0  0  0  0
 11 12  1  0  0  0  0
 12 13  1  0  0  0  0
 13 14  2  0  0  0  0
 14 15  1  0  0  0  0
 15 16  2  0  0  0  0
 16 17  1  0  0  0  0
 17 18  1  0  0  0  0
 18 19  1  0  0  0  0
 18 20  1  0  0  0  0
 18 21  1  0  0  0  0
 16 22  1  0  0  0  0
 22 23  2  0  0  0  0
 11 24  2  0  0  0  0
 24 25  1  0  0  0  0
 25 26  2  0  0  0  0
  8 27  2  0  0  0  0
 27  4  1  0  0  0  0
 26  9  1  0  0  0  0
 23 13  1  0  0  0  0
  1 28  1  0  0  0  0
  1 29  1  0  0  0  0
  5 30  1  0  0  0  0
  6 31  1  0  0  0  0
  7 32  1  0  0  0  0
 10 33  1  0  0  0  0
 12 34  1  0  0  0  0
 14 35  1  0  0  0  0
 15 36  1  0  0  0  0
 22 37  1  0  0  0  0
 23 38  1  0  0  0  0
 25 39  1  0  0  0  0
 27 40  1  0  0  0  0
M  END
> <BIOSOLVEIT.HYDE_ESTIMATED_AFFINITY_LOWER_BOUNDARY [nM]>
680787.582721

> <BIOSOLVEIT.HYDE_ESTIMATED_AFFINITY_UPPER_BOUNDARY [nM]>
67640271.478076

> <BIOSOLVEIT.HYDE_LIGAND_EFFICIENCY range: ++, +, 0, -, -->
--

> <BIOSOLVEIT.HYDE_LIGAND_LIPOPHILIC_EFFICIENCY range: ++, +, 0, -, -->
--

> <BIOSOLVEIT.INTER_CLASH range: red, yellow, green>
green

> <BIOSOLVEIT.INTRA_CLASH range: red, yellow, green>
green

> <BIOSOLVEIT.LOGP>
3.8847

> <BIOSOLVEIT.MOLECULAR WEIGHT>
374.321

> <BIOSOLVEIT.MOLECULE_CHECKSUM>
LTEyLjM3NzI7MC40NTg0MTU=

> <BIOSOLVEIT.TORSION_QUALITY range: red, yellow, green, not rotatable>
red

> <BIOSOLVEIT.TPSA>
90.13

$$$$
3K5V_STI_1
foHydescor03192112273D 1   1.00000     0.00000     0
Hydescorer 1.1.0 fol007
 70 74  0  0  0  0            999 V2000
   22.2335   12.3983   56.8304 C   0  0  0  0  0  0  0  0  0  0  0  0
   20.8675   12.8493   56.3388 C   0  0  0  0  0  0  0  0  0  0  0  0
   19.8161   11.9388   56.3566 C   0  0  0  0  0  0  0  0  0  0  0  0
   18.5550   12.3240   55.9130 C   0  0  0  0  0  0  0  0  0  0  0  0
   18.3604   13.6228   55.4548 C   0  0  0  0  0  0  0  0  0  0  0  0
   17.0953   14.0205   55.0061 N   0  0  0  0  0  0  0  0  0  0  0  0
   16.7735   15.3653   54.6127 C   0  0  0  0  0  0  0  0  0  0  0  0
   17.3771   16.3344   55.1497 O   0  0  0  0  0  0  0  0  0  0  0  0
   15.7040   15.6317   53.6201 C   0  0  0  0  0  0  0  0  0  0  0  0
   14.6658   14.7172   53.4741 C   0  0  0  0  0  0  0  0  0  0  0  0
   13.6549   14.9541   52.5481 C   0  0  0  0  0  0  0  0  0  0  0  0
   13.7001   16.1120   51.7771 C   0  0  0  0  0  0  0  0  0  0  0  0
   12.6028   16.3835   50.7607 C   0  0  0  0  0  0  0  0  0  0  0  0
   11.4406   17.0862   51.3649 N   0  3  0  0  0  0  0  0  0  0  0  0
   10.1810   16.6439   50.7349 C   0  0  0  0  0  0  0  0  0  0  0  0
    9.2139   16.0503   51.7461 C   0  0  0  0  0  0  0  0  0  0  0  0
    8.9730   17.0075   52.8374 N   0  3  0  0  0  0  0  0  0  0  0  0
    8.1366   16.3785   53.8675 C   0  0  0  0  0  0  0  0  0  0  0  0
   10.2106   17.5458   53.4288 C   0  0  0  0  0  0  0  0  0  0  0  0
   11.4585   16.9207   52.8249 C   0  0  0  0  0  0  0  0  0  0  0  0
   14.7363   17.0289   51.9196 C   0  0  0  0  0  0  0  0  0  0  0  0
   15.7450   16.7874   52.8473 C   0  0  0  0  0  0  0  0  0  0  0  0
   19.4070   14.5392   55.4340 C   0  0  0  0  0  0  0  0  0  0  0  0
   20.6655   14.1469   55.8790 C   0  0  0  0  0  0  0  0  0  0  0  0
   21.7582   15.0832   55.8639 N   0  0  0  0  0  0  0  0  0  0  0  0
   22.1698   15.8120   56.9871 C   0  0  0  0  0  0  0  0  0  0  0  0
   21.4784   15.6870   58.1294 N   0  0  0  0  0  0  0  0  0  0  0  0
   21.8265   16.3604   59.2358 C   0  0  0  0  0  0  0  0  0  0  0  0
   22.9284   17.2087   59.2039 C   0  0  0  0  0  0  0  0  0  0  0  0
   23.6391   17.3319   58.0148 C   0  0  0  0  0  0  0  0  0  0  0  0
   24.7905   18.2155   57.9728 C   0  0  0  0  0  0  0  0  0  0  0  0
   25.1186   18.9652   59.0974 C   0  0  0  0  0  0  0  0  0  0  0  0
   26.2225   19.8094   59.0535 C   0  0  0  0  0  0  0  0  0  0  0  0
   26.9661   19.8766   57.8800 C   0  0  0  0  0  0  0  0  0  0  0  0
   26.6297   19.1436   56.8083 N   0  0  0  0  0  0  0  0  0  0  0  0
   25.5697   18.3216   56.8254 C   0  0  0  0  0  0  0  0  0  0  0  0
   23.2353   16.6282   56.9446 N   0  0  0  0  0  0  0  0  0  0  0  0
   22.8811   13.1567   56.7573 H   0  0  0  0  0  0  0  0  0  0  0  0
   22.1653   12.1091   57.7852 H   0  0  0  0  0  0  0  0  0  0  0  0
   22.5524   11.6324   56.2721 H   0  0  0  0  0  0  0  0  0  0  0  0
   19.9666   11.0074   56.6883 H   0  0  0  0  0  0  0  0  0  0  0  0
   17.7957   11.6733   55.9235 H   0  0  0  0  0  0  0  0  0  0  0  0
   16.3742   13.3295   54.9562 H   0  0  0  0  0  0  0  0  0  0  0  0
   14.6462   13.8894   54.0348 H   0  0  0  0  0  0  0  0  0  0  0  0
   12.9056   14.3012   52.4379 H   0  0  0  0  0  0  0  0  0  0  0  0
   12.2912   15.5119   50.3823 H   0  0  0  0  0  0  0  0  0  0  0  0
   12.9764   16.9509   50.0269 H   0  0  0  0  0  0  0  0  0  0  0  0
   11.5463   18.0618   51.1721 H   0  0  0  0  0  0  0  0  0  0  0  0
   10.3914   15.9513   50.0448 H   0  0  0  0  0  0  0  0  0  0  0  0
    9.7464   17.4304   50.2962 H   0  0  0  0  0  0  0  0  0  0  0  0
    9.6038   15.2101   52.1231 H   0  0  0  0  0  0  0  0  0  0  0  0
    8.3477   15.8413   51.2921 H   0  0  0  0  0  0  0  0  0  0  0  0
    8.4590   17.7767   52.4578 H   0  0  0  0  0  0  0  0  0  0  0  0
    7.9738   17.0302   54.6084 H   0  0  0  0  0  0  0  0  0  0  0  0
    7.2625   16.1051   53.4660 H   0  0  0  0  0  0  0  0  0  0  0  0
    8.6039   15.5720   54.2297 H   0  0  0  0  0  0  0  0  0  0  0  0
   10.2031   17.3632   54.4119 H   0  0  0  0  0  0  0  0  0  0  0  0
   10.2382   18.5332   53.2733 H   0  0  0  0  0  0  0  0  0  0  0  0
   11.4833   15.9464   53.0484 H   0  0  0  0  0  0  0  0  0  0  0  0
   12.2696   17.3695   53.2000 H   0  0  0  0  0  0  0  0  0  0  0  0
   14.7563   17.8566   51.3588 H   0  0  0  0  0  0  0  0  0  0  0  0
   16.4942   17.4404   52.9577 H   0  0  0  0  0  0  0  0  0  0  0  0
   19.2563   15.4705   55.1025 H   0  0  0  0  0  0  0  0  0  0  0  0
   22.2506   15.2210   55.0046 H   0  0  0  0  0  0  0  0  0  0  0  0
   21.2975   16.2534   60.0777 H   0  0  0  0  0  0  0  0  0  0  0  0
   23.2038   17.7190   60.0186 H   0  0  0  0  0  0  0  0  0  0  0  0
   24.5666   18.8977   59.9285 H   0  0  0  0  0  0  0  0  0  0  0  0
   26.4769   20.3577   59.8501 H   0  0  0  0  0  0  0  0  0  0  0  0
   27.7626   20.4797   57.8348 H   0  0  0  0  0  0  0  0  0  0  0  0
   25.3397   17.7852   56.0134 H   0  0  0  0  0  0  0  0  0  0  0  0
  1  2  1  0  0  0  0
  2  3  2  0  0  0  0
  3  4  1  0  0  0  0
  4  5  2  0  0  0  0
  5  6  1  0  0  0  0
  6  7  1  0  0  0  0
  7  8  2  0  0  0  0
  7  9  1  0  0  0  0
  9 10  2  0  0  0  0
 10 11  1  0  0  0  0
 11 12  2  0  0  0  0
 12 13  1  0  0  0  0
 13 14  1  0  0  0  0
 14 15  1  0  0  0  0
 15 16  1  0  0  0  0
 16 17  1  0  0  0  0
 17 18  1  0  0  0  0
 17 19  1  0  0  0  0
 19 20  1  0  0  0  0
 12 21  1  0  0  0  0
 21 22  2  0  0  0  0
  5 23  1  0  0  0  0
 23 24  2  0  0  0  0
 24 25  1  0  0  0  0
 25 26  1  0  0  0  0
 26 27  2  0  0  0  0
 27 28  1  0  0  0  0
 28 29  2  0  0  0  0
 29 30  1  0  0  0  0
 30 31  1  0  0  0  0
 31 32  2  0  0  0  0
 32 33  1  0  0  0  0
 33 34  2  0  0  0  0
 34 35  1  0  0  0  0
 35 36  2  0  0  0  0
 30 37  2  0  0  0  0
 24  2  1  0  0  0  0
 37 26  1  0  0  0  0
 22  9  1  0  0  0  0
 36 31  1  0  0  0  0
 20 14  1  0  0  0  0
  1 38  1  0  0  0  0
  1 39  1  0  0  0  0
  1 40  1  0  0  0  0
  3 41  1  0  0  0  0
  4 42  1  0  0  0  0
  6 43  1  0  0  0  0
 10 44  1  0  0  0  0
 11 45  1  0  0  0  0
 13 46  1  0  0  0  0
 13 47  1  0  0  0  0
 14 48  1  0  0  0  0
 15 49  1  0  0  0  0
 15 50  1  0  0  0  0
 16 51  1  0  0  0  0
 16 52  1  0  0  0  0
 17 53  1  0  0  0  0
 18 54  1  0  0  0  0
 18 55  1  0  0  0  0
 18 56  1  0  0  0  0
 19 57  1  0  0  0  0
 19 58  1  0  0  0  0
 20 59  1  0  0  0  0
 20 60  1  0  0  0  0
 21 61  1  0  0  0  0
 22 62  1  0  0  0  0
 23 63  1  0  0  0  0
 25 64  1  0  0  0  0
 28 65  1  0  0  0  0
 29 66  1  0  0  0  0
 32 67  1  0  0  0  0
 33 68  1  0  0  0  0
 34 69  1  0  0  0  0
 36 70  1  0  0  0  0
M  CHG  2  14   1  17   1
M  END
> <BIOSOLVEIT.HYDE_ESTIMATED_AFFINITY_LOWER_BOUNDARY [nM]>
0.000130

> <BIOSOLVEIT.HYDE_ESTIMATED_AFFINITY_UPPER_BOUNDARY [nM]>
0.012934

> <BIOSOLVEIT.HYDE_LIGAND_EFFICIENCY range: ++, +, 0, -, -->
+

> <BIOSOLVEIT.HYDE_LIGAND_LIPOPHILIC_EFFICIENCY range: ++, +, 0, -, -->
++

> <BIOSOLVEIT.INTER_CLASH range: red, yellow, green>
green

> <BIOSOLVEIT.INTRA_CLASH range: red, yellow, green>
red

> <BIOSOLVEIT.LOGP>
1.75612

> <BIOSOLVEIT.MOLECULAR WEIGHT>
495.628

> <BIOSOLVEIT.MOLECULE_CHECKSUM>
LTY3Ljg1MDM7MS44MzM3OQ==

> <BIOSOLVEIT.TORSION_QUALITY range: red, yellow, green, not rotatable>
yellow

> <BIOSOLVEIT.TPSA>
88.68

$$$$
3K5V_STI_2
foHydescor03192112273D 1   1.00000     0.00000     0
Hydescorer 1.1.0 fol007
 70 74  0  0  0  0            999 V2000
   22.2300   12.3955   56.8197 C   0  0  0  0  0  0  0  0  0  0  0  0
   20.8637   12.8472   56.3302 C   0  0  0  0  0  0  0  0  0  0  0  0
   19.8123   11.9367   56.3472 C   0  0  0  0  0  0  0  0  0  0  0  0
   18.5507   12.3225   55.9055 C   0  0  0  0  0  0  0  0  0  0  0  0
   18.3557   13.6222   55.4498 C   0  0  0  0  0  0  0  0  0  0  0  0
   17.0901   14.0206   55.0030 N   0  0  0  0  0  0  0  0  0  0  0  0
   16.7695   15.3647   54.6063 C   0  0  0  0  0  0  0  0  0  0  0  0
   17.3761   16.3345   55.1388 O   0  0  0  0  0  0  0  0  0  0  0  0
   15.6981   15.6298   53.6156 C   0  0  0  0  0  0  0  0  0  0  0  0
   15.7381   16.8000   52.8643 C   0  0  0  0  0  0  0  0  0  0  0  0
   14.7406   17.0617   51.9302 C   0  0  0  0  0  0  0  0  0  0  0  0
   13.7114   16.1403   51.7622 C   0  0  0  0  0  0  0  0  0  0  0  0
   12.6143   16.4134   50.7458 C   0  0  0  0  0  0  0  0  0  0  0  0
   11.4483   17.1077   51.3526 N   0  3  0  0  0  0  0  0  0  0  0  0
   10.1909   16.6591   50.7227 C   0  0  0  0  0  0  0  0  0  0  0  0
    9.2284   16.0574   51.7335 C   0  0  0  0  0  0  0  0  0  0  0  0
    8.9827   17.0106   52.8271 N   0  3  0  0  0  0  0  0  0  0  0  0
    8.1509   16.3744   53.8565 C   0  0  0  0  0  0  0  0  0  0  0  0
   10.2174   17.5552   53.4186 C   0  0  0  0  0  0  0  0  0  0  0  0
   11.4686   16.9390   52.8121 C   0  0  0  0  0  0  0  0  0  0  0  0
   13.6672   14.9691   52.5113 C   0  0  0  0  0  0  0  0  0  0  0  0
   14.6672   14.7120   53.4441 C   0  0  0  0  0  0  0  0  0  0  0  0
   19.4021   14.5386   55.4299 C   0  0  0  0  0  0  0  0  0  0  0  0
   20.6611   14.1457   55.8730 C   0  0  0  0  0  0  0  0  0  0  0  0
   21.7538   15.0820   55.8586 N   0  0  0  0  0  0  0  0  0  0  0  0
   22.1656   15.8098   56.9824 C   0  0  0  0  0  0  0  0  0  0  0  0
   21.4745   15.6836   58.1248 N   0  0  0  0  0  0  0  0  0  0  0  0
   21.8227   16.3558   59.2317 C   0  0  0  0  0  0  0  0  0  0  0  0
   22.9245   17.2043   59.2004 C   0  0  0  0  0  0  0  0  0  0  0  0
   23.6347   17.3290   58.0113 C   0  0  0  0  0  0  0  0  0  0  0  0
   24.7860   18.2129   57.9698 C   0  0  0  0  0  0  0  0  0  0  0  0
   25.1124   18.9637   59.0942 C   0  0  0  0  0  0  0  0  0  0  0  0
   26.2161   19.8081   59.0508 C   0  0  0  0  0  0  0  0  0  0  0  0
   26.9612   19.8745   57.8783 C   0  0  0  0  0  0  0  0  0  0  0  0
   26.6263   19.1405   56.8067 N   0  0  0  0  0  0  0  0  0  0  0  0
   25.5665   18.3182   56.8233 C   0  0  0  0  0  0  0  0  0  0  0  0
   23.2308   16.6264   56.9404 N   0  0  0  0  0  0  0  0  0  0  0  0
   22.8775   13.1541   56.7473 H   0  0  0  0  0  0  0  0  0  0  0  0
   22.1627   12.1045   57.7740 H   0  0  0  0  0  0  0  0  0  0  0  0
   22.5486   11.6307   56.2597 H   0  0  0  0  0  0  0  0  0  0  0  0
   19.9632   11.0047   56.6770 H   0  0  0  0  0  0  0  0  0  0  0  0
   17.7915   11.6718   55.9154 H   0  0  0  0  0  0  0  0  0  0  0  0
   16.3677   13.3307   54.9570 H   0  0  0  0  0  0  0  0  0  0  0  0
   16.4838   17.4531   52.9956 H   0  0  0  0  0  0  0  0  0  0  0  0
   14.7630   17.9008   51.3867 H   0  0  0  0  0  0  0  0  0  0  0  0
   12.3068   15.5427   50.3618 H   0  0  0  0  0  0  0  0  0  0  0  0
   12.9866   16.9867   50.0160 H   0  0  0  0  0  0  0  0  0  0  0  0
   11.5479   18.0843   51.1619 H   0  0  0  0  0  0  0  0  0  0  0  0
   10.4049   15.9694   50.0309 H   0  0  0  0  0  0  0  0  0  0  0  0
    9.7511   17.4439   50.2861 H   0  0  0  0  0  0  0  0  0  0  0  0
    9.6238   15.2188   52.1082 H   0  0  0  0  0  0  0  0  0  0  0  0
    8.3630   15.8442   51.2798 H   0  0  0  0  0  0  0  0  0  0  0  0
    8.4637   17.7776   52.4496 H   0  0  0  0  0  0  0  0  0  0  0  0
    7.9848   17.0234   54.5989 H   0  0  0  0  0  0  0  0  0  0  0  0
    7.2781   16.0966   53.4550 H   0  0  0  0  0  0  0  0  0  0  0  0
    8.6233   15.5699   54.2164 H   0  0  0  0  0  0  0  0  0  0  0  0
   10.2119   17.3704   54.4013 H   0  0  0  0  0  0  0  0  0  0  0  0
   10.2389   18.5432   53.2653 H   0  0  0  0  0  0  0  0  0  0  0  0
   11.4995   15.9642   53.0334 H   0  0  0  0  0  0  0  0  0  0  0  0
   12.2773   17.3918   53.1876 H   0  0  0  0  0  0  0  0  0  0  0  0
   12.9214   14.3159   52.3803 H   0  0  0  0  0  0  0  0  0  0  0  0
   14.6448   13.8729   53.9876 H   0  0  0  0  0  0  0  0  0  0  0  0
   19.2510   15.4706   55.1003 H   0  0  0  0  0  0  0  0  0  0  0  0
   22.2460   15.2207   54.9993 H   0  0  0  0  0  0  0  0  0  0  0  0
   21.2941   16.2479   60.0736 H   0  0  0  0  0  0  0  0  0  0  0  0
   23.2000   17.7138   60.0155 H   0  0  0  0  0  0  0  0  0  0  0  0
   24.5594   18.8969   59.9247 H   0  0  0  0  0  0  0  0  0  0  0  0
   26.4694   20.3572   59.8473 H   0  0  0  0  0  0  0  0  0  0  0  0
   27.7576   20.4777   57.8334 H   0  0  0  0  0  0  0  0  0  0  0  0
   25.3377   17.7810   56.0114 H   0  0  0  0  0  0  0  0  0  0  0  0
  1  2  1  0  0  0  0
  2  3  2  0  0  0  0
  3  4  1  0  0  0  0
  4  5  2  0  0  0  0
  5  6  1  0  0  0  0
  6  7  1  0  0  0  0
  7  8  2  0  0  0  0
  7  9  1  0  0  0  0
  9 10  2  0  0  0  0
 10 11  1  0  0  0  0
 11 12  2  0  0  0  0
 12 13  1  0  0  0  0
 13 14  1  0  0  0  0
 14 15  1  0  0  0  0
 15 16  1  0  0  0  0
 16 17  1  0  0  0  0
 17 18  1  0  0  0  0
 17 19  1  0  0  0  0
 19 20  1  0  0  0  0
 12 21  1  0  0  0  0
 21 22  2  0  0  0  0
  5 23  1  0  0  0  0
 23 24  2  0  0  0  0
 24 25  1  0  0  0  0
 25 26  1  0  0  0  0
 26 27  2  0  0  0  0
 27 28  1  0  0  0  0
 28 29  2  0  0  0  0
 29 30  1  0  0  0  0
 30 31  1  0  0  0  0
 31 32  2  0  0  0  0
 32 33  1  0  0  0  0
 33 34  2  0  0  0  0
 34 35  1  0  0  0  0
 35 36  2  0  0  0  0
 30 37  2  0  0  0  0
 24  2  1  0  0  0  0
 37 26  1  0  0  0  0
 22  9  1  0  0  0  0
 36 31  1  0  0  0  0
 20 14  1  0  0  0  0
  1 38  1  0  0  0  0
  1 39  1  0  0  0  0
  1 40  1  0  0  0  0
  3 41  1  0  0  0  0
  4 42  1  0  0  0  0
  6 43  1  0  0  0  0
 10 44  1  0  0  0  0
 11 45  1  0  0  0  0
 13 46  1  0  0  0  0
 13 47  1  0  0  0  0
 14 48  1  0  0  0  0
 15 49  1  0  0  0  0
 15 50  1  0  0  0  0
 16 51  1  0  0  0  0
 16 52  1  0  0  0  0
 17 53  1  0  0  0  0
 18 54  1  0  0  0  0
 18 55  1  0  0  0  0
 18 56  1  0  0  0  0
 19 57  1  0  0  0  0
 19 58  1  0  0  0  0
 20 59  1  0  0  0  0
 20 60  1  0  0  0  0
 21 61  1  0  0  0  0
 22 62  1  0  0  0  0
 23 63  1  0  0  0  0
 25 64  1  0  0  0  0
 28 65  1  0  0  0  0
 29 66  1  0  0  0  0
 32 67  1  0  0  0  0
 33 68  1  0  0  0  0
 34 69  1  0  0  0  0
 36 70  1  0  0  0  0
M  CHG  2  14   1  17   1
M  END
> <BIOSOLVEIT.HYDE_ESTIMATED_AFFINITY_LOWER_BOUNDARY [nM]>
0.000118

> <BIOSOLVEIT.HYDE_ESTIMATED_AFFINITY_UPPER_BOUNDARY [nM]>
0.011746

> <BIOSOLVEIT.HYDE_LIGAND_EFFICIENCY range: ++, +, 0, -, -->
+

> <BIOSOLVEIT.HYDE_LIGAND_LIPOPHILIC_EFFICIENCY range: ++, +, 0, -, -->
++

> <BIOSOLVEIT.INTER_CLASH range: red, yellow, green>
green

> <BIOSOLVEIT.INTRA_CLASH range: red, yellow, green>
red

> <BIOSOLVEIT.LOGP>
1.75612

> <BIOSOLVEIT.MOLECULAR WEIGHT>
495.628

> <BIOSOLVEIT.MOLECULE_CHECKSUM>
LTY4LjA4OTE7MS44NDAyNQ==

> <BIOSOLVEIT.TORSION_QUALITY range: red, yellow, green, not rotatable>
yellow

> <BIOSOLVEIT.TPSA>
88.68

$$$$
3K5V_STI_3
foHydescor03192112273D 1   1.00000     0.00000     0
Hydescorer 1.1.0 fol007
 70 74  0  0  0  0            999 V2000
   22.2284   12.3973   56.8179 C   0  0  0  0  0  0  0  0  0  0  0  0
   20.8619   12.8488   56.3287 C   0  0  0  0  0  0  0  0  0  0  0  0
   19.8107   11.9380   56.3456 C   0  0  0  0  0  0  0  0  0  0  0  0
   18.5490   12.3236   55.9042 C   0  0  0  0  0  0  0  0  0  0  0  0
   18.3535   13.6233   55.4487 C   0  0  0  0  0  0  0  0  0  0  0  0
   17.0878   14.0214   55.0020 N   0  0  0  0  0  0  0  0  0  0  0  0
   16.7670   15.3654   54.6050 C   0  0  0  0  0  0  0  0  0  0  0  0
   17.3737   16.3353   55.1370 O   0  0  0  0  0  0  0  0  0  0  0  0
   15.6952   15.6299   53.6145 C   0  0  0  0  0  0  0  0  0  0  0  0
   15.7343   16.8005   52.8635 C   0  0  0  0  0  0  0  0  0  0  0  0
   14.7367   17.0618   51.9296 C   0  0  0  0  0  0  0  0  0  0  0  0
   13.7080   16.1396   51.7614 C   0  0  0  0  0  0  0  0  0  0  0  0
   12.6106   16.4122   50.7453 C   0  0  0  0  0  0  0  0  0  0  0  0
   11.4545   17.1270   51.3472 N   0  3  0  0  0  0  0  0  0  0  0  0
   11.4700   16.9424   52.8055 C   0  0  0  0  0  0  0  0  0  0  0  0
   10.2162   17.5357   53.4319 C   0  0  0  0  0  0  0  0  0  0  0  0
    8.9901   17.0101   52.8073 N   0  3  0  0  0  0  0  0  0  0  0  0
    8.1195   16.3770   53.8092 C   0  0  0  0  0  0  0  0  0  0  0  0
    9.2355   16.0681   51.7036 C   0  0  0  0  0  0  0  0  0  0  0  0
   10.2177   16.6500   50.7012 C   0  0  0  0  0  0  0  0  0  0  0  0
   13.6647   14.9682   52.5103 C   0  0  0  0  0  0  0  0  0  0  0  0
   14.6649   14.7115   53.4429 C   0  0  0  0  0  0  0  0  0  0  0  0
   19.3998   14.5400   55.4287 C   0  0  0  0  0  0  0  0  0  0  0  0
   20.6589   14.1473   55.8715 C   0  0  0  0  0  0  0  0  0  0  0  0
   21.7513   15.0839   55.8572 N   0  0  0  0  0  0  0  0  0  0  0  0
   22.1637   15.8108   56.9813 C   0  0  0  0  0  0  0  0  0  0  0  0
   21.4731   15.6840   58.1238 N   0  0  0  0  0  0  0  0  0  0  0  0
   21.8219   16.3555   59.2311 C   0  0  0  0  0  0  0  0  0  0  0  0
   22.9239   17.2039   59.1998 C   0  0  0  0  0  0  0  0  0  0  0  0
   23.6336   17.3291   58.0104 C   0  0  0  0  0  0  0  0  0  0  0  0
   24.7851   18.2128   57.9692 C   0  0  0  0  0  0  0  0  0  0  0  0
   25.1114   18.9637   59.0934 C   0  0  0  0  0  0  0  0  0  0  0  0
   26.2153   19.8081   59.0502 C   0  0  0  0  0  0  0  0  0  0  0  0
   26.9605   19.8740   57.8777 C   0  0  0  0  0  0  0  0  0  0  0  0
   26.6257   19.1400   56.8063 N   0  0  0  0  0  0  0  0  0  0  0  0
   25.5658   18.3178   56.8227 C   0  0  0  0  0  0  0  0  0  0  0  0
   23.2291   16.6272   56.9393 N   0  0  0  0  0  0  0  0  0  0  0  0
   22.8758   13.1560   56.7456 H   0  0  0  0  0  0  0  0  0  0  0  0
   22.1613   12.1061   57.7722 H   0  0  0  0  0  0  0  0  0  0  0  0
   22.5470   11.6327   56.2577 H   0  0  0  0  0  0  0  0  0  0  0  0
   19.9619   11.0060   56.6751 H   0  0  0  0  0  0  0  0  0  0  0  0
   17.7899   11.6727   55.9143 H   0  0  0  0  0  0  0  0  0  0  0  0
   16.3655   13.3313   54.9566 H   0  0  0  0  0  0  0  0  0  0  0  0
   16.4795   17.4542   52.9950 H   0  0  0  0  0  0  0  0  0  0  0  0
   14.7586   17.9010   51.3863 H   0  0  0  0  0  0  0  0  0  0  0  0
   12.2922   15.5404   50.3731 H   0  0  0  0  0  0  0  0  0  0  0  0
   12.9869   16.9722   50.0072 H   0  0  0  0  0  0  0  0  0  0  0  0
   11.5535   18.1030   51.1534 H   0  0  0  0  0  0  0  0  0  0  0  0
   12.2749   17.3975   53.1862 H   0  0  0  0  0  0  0  0  0  0  0  0
   11.5105   15.9650   53.0130 H   0  0  0  0  0  0  0  0  0  0  0  0
   10.2369   18.5290   53.3184 H   0  0  0  0  0  0  0  0  0  0  0  0
   10.2044   17.3118   54.4065 H   0  0  0  0  0  0  0  0  0  0  0  0
    8.4909   17.7895   52.4286 H   0  0  0  0  0  0  0  0  0  0  0  0
    7.2955   16.0286   53.3622 H   0  0  0  0  0  0  0  0  0  0  0  0
    8.6076   15.6206   54.2447 H   0  0  0  0  0  0  0  0  0  0  0  0
    7.8633   17.0511   54.5019 H   0  0  0  0  0  0  0  0  0  0  0  0
    8.3707   15.8749   51.2400 H   0  0  0  0  0  0  0  0  0  0  0  0
    9.6114   15.2193   52.0752 H   0  0  0  0  0  0  0  0  0  0  0  0
    9.7822   17.4184   50.2321 H   0  0  0  0  0  0  0  0  0  0  0  0
   10.4543   15.9434   50.0344 H   0  0  0  0  0  0  0  0  0  0  0  0
   12.9194   14.3145   52.3792 H   0  0  0  0  0  0  0  0  0  0  0  0
   14.6431   13.8722   53.9862 H   0  0  0  0  0  0  0  0  0  0  0  0
   19.2485   15.4720   55.0993 H   0  0  0  0  0  0  0  0  0  0  0  0
   22.2431   15.2234   54.9976 H   0  0  0  0  0  0  0  0  0  0  0  0
   21.2935   16.2472   60.0732 H   0  0  0  0  0  0  0  0  0  0  0  0
   23.1998   17.7128   60.0152 H   0  0  0  0  0  0  0  0  0  0  0  0
   24.5581   18.8971   59.9238 H   0  0  0  0  0  0  0  0  0  0  0  0
   26.4684   20.3572   59.8466 H   0  0  0  0  0  0  0  0  0  0  0  0
   27.7569   20.4771   57.8329 H   0  0  0  0  0  0  0  0  0  0  0  0
   25.3371   17.7804   56.0109 H   0  0  0  0  0  0  0  0  0  0  0  0
  1  2  1  0  0  0  0
  2  3  2  0  0  0  0
  3  4  1  0  0  0  0
  4  5  2  0  0  0  0
  5  6  1  0  0  0  0
  6  7  1  0  0  0  0
  7  8  2  0  0  0  0
  7  9  1  0  0  0  0
  9 10  2  0  0  0  0
 10 11  1  0  0  0  0
 11 12  2  0  0  0  0
 12 13  1  0  0  0  0
 13 14  1  0  0  0  0
 14 15  1  0  0  0  0
 15 16  1  0  0  0  0
 16 17  1  0  0  0  0
 17 18  1  0  0  0  0
 17 19  1  0  0  0  0
 19 20  1  0  0  0  0
 12 21  1  0  0  0  0
 21 22  2  0  0  0  0
  5 23  1  0  0  0  0
 23 24  2  0  0  0  0
 24 25  1  0  0  0  0
 25 26  1  0  0  0  0
 26 27  2  0  0  0  0
 27 28  1  0  0  0  0
 28 29  2  0  0  0  0
 29 30  1  0  0  0  0
 30 31  1  0  0  0  0
 31 32  2  0  0  0  0
 32 33  1  0  0  0  0
 33 34  2  0  0  0  0
 34 35  1  0  0  0  0
 35 36  2  0  0  0  0
 30 37  2  0  0  0  0
 24  2  1  0  0  0  0
 37 26  1  0  0  0  0
 22  9  1  0  0  0  0
 36 31  1  0  0  0  0
 20 14  1  0  0  0  0
  1 38  1  0  0  0  0
  1 39  1  0  0  0  0
  1 40  1  0  0  0  0
  3 41  1  0  0  0  0
  4 42  1  0  0  0  0
  6 43  1  0  0  0  0
 10 44  1  0  0  0  0
 11 45  1  0  0  0  0
 13 46  1  0  0  0  0
 13 47  1  0  0  0  0
 14 48  1  0  0  0  0
 15 49  1  0  0  0  0
 15 50  1  0  0  0  0
 16 51  1  0  0  0  0
 16 52  1  0  0  0  0
 17 53  1  0  0  0  0
 18 54  1  0  0  0  0
 18 55  1  0  0  0  0
 18 56  1  0  0  0  0
 19 57  1  0  0  0  0
 19 58  1  0  0  0  0
 20 59  1  0  0  0  0
 20 60  1  0  0  0  0
 21 61  1  0  0  0  0
 22 62  1  0  0  0  0
 23 63  1  0  0  0  0
 25 64  1  0  0  0  0
 28 65  1  0  0  0  0
 29 66  1  0  0  0  0
 32 67  1  0  0  0  0
 33 68  1  0  0  0  0
 34 69  1  0  0  0  0
 36 70  1  0  0  0  0
M  CHG  2  14   1  17   1
M  END
> <BIOSOLVEIT.HYDE_ESTIMATED_AFFINITY_LOWER_BOUNDARY [nM]>
0.000105

> <BIOSOLVEIT.HYDE_ESTIMATED_AFFINITY_UPPER_BOUNDARY [nM]>
0.010391

> <BIOSOLVEIT.HYDE_LIGAND_EFFICIENCY range: ++, +, 0, -, -->
+

> <BIOSOLVEIT.HYDE_LIGAND_LIPOPHILIC_EFFICIENCY range: ++, +, 0, -, -->
++

> <BIOSOLVEIT.INTER_CLASH range: red, yellow, green>
green

> <BIOSOLVEIT.INTRA_CLASH range: red, yellow, green>
red

> <BIOSOLVEIT.LOGP>
1.75612

> <BIOSOLVEIT.MOLECULAR WEIGHT>
495.628

> <BIOSOLVEIT.MOLECULE_CHECKSUM>
LTY4LjM5MzE7MS44NDg0Ng==

> <BIOSOLVEIT.TORSION_QUALITY range: red, yellow, green, not rotatable>
yellow

> <BIOSOLVEIT.TPSA>
88.68

$$$$
3KFA_B91_1
foHydescor03192112273D 1   1.00000     0.00000     0
Hydescorer 1.1.0 fol007
 66 71  0  0  0  0            999 V2000
    9.3916   12.2705   54.3429 C   0  0  0  0  0  0  0  0  0  0  0  0
   10.2864   13.3038   53.6767 C   0  0  0  0  0  0  0  0  0  0  0  0
   11.6069   13.4908   53.9446 C   0  0  0  0  0  0  0  0  0  0  0  0
   12.0147   14.5034   53.1315 N   0  0  0  0  0  0  0  0  0  0  0  0
   13.3059   15.0396   53.0648 C   0  0  0  0  0  0  0  0  0  0  0  0
   14.2805   14.5728   53.9398 C   0  0  0  0  0  0  0  0  0  0  0  0
   15.5614   15.1106   53.8662 C   0  0  0  0  0  0  0  0  0  0  0  0
   16.5558   14.6524   54.7381 N   0  0  0  0  0  0  0  0  0  0  0  0
   17.6115   15.4835   55.2503 C   0  0  0  0  0  0  0  0  0  0  0  0
   17.4094   16.7180   55.4159 O   0  0  0  0  0  0  0  0  0  0  0  0
   18.9207   14.9000   55.6332 C   0  0  0  0  0  0  0  0  0  0  0  0
   18.9959   13.5647   56.0148 C   0  0  0  0  0  0  0  0  0  0  0  0
   20.2230   13.0183   56.3753 C   0  0  0  0  0  0  0  0  0  0  0  0
   21.3685   13.8065   56.3529 C   0  0  0  0  0  0  0  0  0  0  0  0
   22.6921   13.1747   56.7527 C   0  0  0  0  0  0  0  0  0  0  0  0
   21.2871   15.1417   55.9704 C   0  0  0  0  0  0  0  0  0  0  0  0
   22.4630   15.9902   55.9365 C   0  0  0  0  0  0  0  0  0  0  0  0
   22.9316   16.5984   57.0329 C   0  0  0  0  0  0  0  0  0  0  0  0
   24.0960   17.4412   57.0107 N   0  0  0  0  0  0  0  0  0  0  0  0
   24.8037   17.7588   55.8889 C   0  0  0  0  0  0  0  0  0  0  0  0
   25.7966   18.5412   56.2509 N   0  0  0  0  0  0  0  0  0  0  0  0
   25.7313   18.7306   57.6021 C   0  0  0  0  0  0  0  0  0  0  0  0
   26.4827   19.4354   58.5357 C   0  0  0  0  0  0  0  0  0  0  0  0
   27.6002   20.1701   58.1212 N   0  0  0  0  0  0  0  0  0  0  0  0
   28.6087   20.8797   58.9294 C   0  0  0  0  0  0  0  0  0  0  0  0
   28.7734   20.2517   60.2833 C   0  0  0  0  0  0  0  0  0  0  0  0
   28.0024   21.5327   60.1381 C   0  0  0  0  0  0  0  0  0  0  0  0
   26.1530   19.4232   59.8369 N   0  0  0  0  0  0  0  0  0  0  0  0
   25.0936   18.7356   60.2855 C   0  0  0  0  0  0  0  0  0  0  0  0
   24.3503   18.0456   59.4088 N   0  0  0  0  0  0  0  0  0  0  0  0
   24.6550   18.0414   58.1029 C   0  0  0  0  0  0  0  0  0  0  0  0
   20.0625   15.6939   55.6089 C   0  0  0  0  0  0  0  0  0  0  0  0
   15.8743   16.0993   52.9391 C   0  0  0  0  0  0  0  0  0  0  0  0
   14.8804   16.5488   52.0763 C   0  0  0  0  0  0  0  0  0  0  0  0
   15.2008   17.6210   51.0643 C   0  0  0  0  0  0  0  0  0  0  0  0
   14.4144   17.4773   49.9347 F   0  0  0  0  0  0  0  0  0  0  0  0
   14.9613   18.8615   51.6250 F   0  0  0  0  0  0  0  0  0  0  0  0
   16.5281   17.5501   50.6773 F   0  0  0  0  0  0  0  0  0  0  0  0
   13.5919   16.0273   52.1285 C   0  0  0  0  0  0  0  0  0  0  0  0
   10.9402   14.9022   52.3940 C   0  0  0  0  0  0  0  0  0  0  0  0
    9.8893   14.1842   52.7149 N   0  0  0  0  0  0  0  0  0  0  0  0
    8.4669   12.3394   53.9685 H   0  0  0  0  0  0  0  0  0  0  0  0
    9.7540   11.3547   54.1698 H   0  0  0  0  0  0  0  0  0  0  0  0
    9.3655   12.4379   55.3284 H   0  0  0  0  0  0  0  0  0  0  0  0
   12.1645   12.9871   54.6044 H   0  0  0  0  0  0  0  0  0  0  0  0
   14.0645   13.8628   54.6101 H   0  0  0  0  0  0  0  0  0  0  0  0
   16.5306   13.6934   55.0206 H   0  0  0  0  0  0  0  0  0  0  0  0
   18.1710   12.9996   56.0300 H   0  0  0  0  0  0  0  0  0  0  0  0
   20.2816   12.0587   56.6506 H   0  0  0  0  0  0  0  0  0  0  0  0
   23.4202   13.8572   56.6883 H   0  0  0  0  0  0  0  0  0  0  0  0
   22.6311   12.8400   57.6930 H   0  0  0  0  0  0  0  0  0  0  0  0
   22.8957   12.4114   56.1396 H   0  0  0  0  0  0  0  0  0  0  0  0
   22.9385   16.1249   55.0671 H   0  0  0  0  0  0  0  0  0  0  0  0
   22.4535   16.4613   57.9005 H   0  0  0  0  0  0  0  0  0  0  0  0
   24.6036   17.4518   54.9585 H   0  0  0  0  0  0  0  0  0  0  0  0
   27.7340   20.2210   57.1315 H   0  0  0  0  0  0  0  0  0  0  0  0
   29.3958   21.3025   58.4801 H   0  0  0  0  0  0  0  0  0  0  0  0
   29.6679   20.2544   60.7303 H   0  0  0  0  0  0  0  0  0  0  0  0
   28.2941   19.4016   60.5017 H   0  0  0  0  0  0  0  0  0  0  0  0
   28.3836   22.3882   60.4885 H   0  0  0  0  0  0  0  0  0  0  0  0
   27.0098   21.5355   60.2599 H   0  0  0  0  0  0  0  0  0  0  0  0
   24.8614   18.7373   61.2582 H   0  0  0  0  0  0  0  0  0  0  0  0
   20.0036   16.6535   55.3339 H   0  0  0  0  0  0  0  0  0  0  0  0
   16.7977   16.4803   52.8938 H   0  0  0  0  0  0  0  0  0  0  0  0
   12.8839   16.3567   51.5038 H   0  0  0  0  0  0  0  0  0  0  0  0
   10.9508   15.6324   51.7109 H   0  0  0  0  0  0  0  0  0  0  0  0
  1  2  1  0  0  0  0
  2  3  2  0  0  0  0
  3  4  1  0  0  0  0
  4  5  1  0  0  0  0
  5  6  2  0  0  0  0
  6  7  1  0  0  0  0
  7  8  1  0  0  0  0
  8  9  1  0  0  0  0
  9 10  2  0  0  0  0
  9 11  1  0  0  0  0
 11 12  2  0  0  0  0
 12 13  1  0  0  0  0
 13 14  2  0  0  0  0
 14 15  1  0  0  0  0
 14 16  1  0  0  0  0
 16 17  1  0  0  0  0
 17 18  2  0  0  0  0
 18 19  1  0  0  0  0
 19 20  1  0  0  0  0
 20 21  2  0  0  0  0
 21 22  1  0  0  0  0
 22 23  2  0  0  0  0
 23 24  1  0  0  0  0
 24 25  1  0  0  0  0
 25 26  1  0  0  0  0
 26 27  1  0  0  0  0
 23 28  1  0  0  0  0
 28 29  2  0  0  0  0
 29 30  1  0  0  0  0
 30 31  2  0  0  0  0
 16 32  2  0  0  0  0
  7 33  2  0  0  0  0
 33 34  1  0  0  0  0
 34 35  1  0  0  0  0
 35 36  1  0  0  0  0
 35 37  1  0  0  0  0
 35 38  1  0  0  0  0
 34 39  2  0  0  0  0
  4 40  1  0  0  0  0
 40 41  2  0  0  0  0
 41  2  1  0  0  0  0
 39  5  1  0  0  0  0
 32 11  1  0  0  0  0
 31 19  1  0  0  0  0
 31 22  1  0  0  0  0
 27 25  1  0  0  0  0
  1 42  1  0  0  0  0
  1 43  1  0  0  0  0
  1 44  1  0  0  0  0
  3 45  1  0  0  0  0
  6 46  1  0  0  0  0
  8 47  1  0  0  0  0
 12 48  1  0  0  0  0
 13 49  1  0  0  0  0
 15 50  1  0  0  0  0
 15 51  1  0  0  0  0
 15 52  1  0  0  0  0
 17 53  1  0  0  0  0
 18 54  1  0  0  0  0
 20 55  1  0  0  0  0
 24 56  1  0  0  0  0
 25 57  1  0  0  0  0
 26 58  1  0  0  0  0
 26 59  1  0  0  0  0
 27 60  1  0  0  0  0
 27 61  1  0  0  0  0
 29 62  1  0  0  0  0
 32 63  1  0  0  0  0
 33 64  1  0  0  0  0
 39 65  1  0  0  0  0
 40 66  1  0  0  0  0
M  END
> <BIOSOLVEIT.HYDE_ESTIMATED_AFFINITY_LOWER_BOUNDARY [nM]>
0.000036

> <BIOSOLVEIT.HYDE_ESTIMATED_AFFINITY_UPPER_BOUNDARY [nM]>
0.003530

> <BIOSOLVEIT.HYDE_LIGAND_EFFICIENCY range: ++, +, 0, -, -->
+

> <BIOSOLVEIT.HYDE_LIGAND_LIPOPHILIC_EFFICIENCY range: ++, +, 0, -, -->
+

> <BIOSOLVEIT.INTER_CLASH range: red, yellow, green>
yellow

> <BIOSOLVEIT.INTRA_CLASH range: red, yellow, green>
yellow

> <BIOSOLVEIT.LOGP>
6.10214

> <BIOSOLVEIT.MOLECULAR WEIGHT>
558.565

> <BIOSOLVEIT.MOLECULE_CHECKSUM>
LTcxLjA2OTU7MS43MzM0

> <BIOSOLVEIT.TORSION_QUALITY range: red, yellow, green, not rotatable>
yellow

> <BIOSOLVEIT.TPSA>
102.55

$$$$
3KFA_B91_2
foHydescor03192112273D 1   1.00000     0.00000     0
Hydescorer 1.1.0 fol007
 66 71  0  0  0  0            999 V2000
    8.4601   14.2432   52.3477 C   0  0  0  0  0  0  0  0  0  0  0  0
    9.8739   14.1873   52.9044 C   0  0  0  0  0  0  0  0  0  0  0  0
   10.9199   14.9423   52.4729 C   0  0  0  0  0  0  0  0  0  0  0  0
   11.9857   14.5780   53.2370 N   0  0  0  0  0  0  0  0  0  0  0  0
   13.2831   15.0948   53.1442 C   0  0  0  0  0  0  0  0  0  0  0  0
   14.2625   14.6303   54.0152 C   0  0  0  0  0  0  0  0  0  0  0  0
   15.5497   15.1486   53.9155 C   0  0  0  0  0  0  0  0  0  0  0  0
   16.5765   14.6796   54.8070 N   0  0  0  0  0  0  0  0  0  0  0  0
   17.6394   15.5100   55.3053 C   0  0  0  0  0  0  0  0  0  0  0  0
   17.4436   16.7465   55.4639 O   0  0  0  0  0  0  0  0  0  0  0  0
   18.9491   14.9237   55.6823 C   0  0  0  0  0  0  0  0  0  0  0  0
   19.0231   13.5888   56.0653 C   0  0  0  0  0  0  0  0  0  0  0  0
   20.2506   13.0398   56.4203 C   0  0  0  0  0  0  0  0  0  0  0  0
   21.3979   13.8252   56.3910 C   0  0  0  0  0  0  0  0  0  0  0  0
   22.7220   13.1907   56.7848 C   0  0  0  0  0  0  0  0  0  0  0  0
   21.3179   15.1602   56.0071 C   0  0  0  0  0  0  0  0  0  0  0  0
   22.4957   16.0057   55.9662 C   0  0  0  0  0  0  0  0  0  0  0  0
   22.9487   16.6450   57.0512 C   0  0  0  0  0  0  0  0  0  0  0  0
   24.1148   17.4854   57.0219 N   0  0  0  0  0  0  0  0  0  0  0  0
   24.8267   17.7872   55.8984 C   0  0  0  0  0  0  0  0  0  0  0  0
   25.8199   18.5723   56.2536 N   0  0  0  0  0  0  0  0  0  0  0  0
   25.7506   18.7791   57.6021 C   0  0  0  0  0  0  0  0  0  0  0  0
   26.5005   19.4944   58.5289 C   0  0  0  0  0  0  0  0  0  0  0  0
   27.6207   20.2217   58.1087 N   0  0  0  0  0  0  0  0  0  0  0  0
   28.6752   20.8674   58.9117 C   0  0  0  0  0  0  0  0  0  0  0  0
   28.7857   20.2511   60.2764 C   0  0  0  0  0  0  0  0  0  0  0  0
   28.1131   21.5835   60.1059 C   0  0  0  0  0  0  0  0  0  0  0  0
   26.1665   19.4995   59.8291 N   0  0  0  0  0  0  0  0  0  0  0  0
   25.1044   18.8199   60.2830 C   0  0  0  0  0  0  0  0  0  0  0  0
   24.3626   18.1200   59.4130 N   0  0  0  0  0  0  0  0  0  0  0  0
   24.6715   18.0985   58.1082 C   0  0  0  0  0  0  0  0  0  0  0  0
   20.0927   15.7149   55.6512 C   0  0  0  0  0  0  0  0  0  0  0  0
   15.8641   16.1158   52.9665 C   0  0  0  0  0  0  0  0  0  0  0  0
   14.8656   16.5634   52.1083 C   0  0  0  0  0  0  0  0  0  0  0  0
   15.1900   17.6203   51.0652 C   0  0  0  0  0  0  0  0  0  0  0  0
   14.9844   18.8903   51.5760 F   0  0  0  0  0  0  0  0  0  0  0  0
   16.5140   17.4954   50.6882 F   0  0  0  0  0  0  0  0  0  0  0  0
   14.3870   17.4699   49.9477 F   0  0  0  0  0  0  0  0  0  0  0  0
   13.5707   16.0611   52.1863 C   0  0  0  0  0  0  0  0  0  0  0  0
   11.5634   13.6190   54.1085 C   0  0  0  0  0  0  0  0  0  0  0  0
   10.2881   13.3744   53.9169 N   0  0  0  0  0  0  0  0  0  0  0  0
    7.8830   13.5894   52.8371 H   0  0  0  0  0  0  0  0  0  0  0  0
    8.0919   15.1656   52.4649 H   0  0  0  0  0  0  0  0  0  0  0  0
    8.4754   14.0115   51.3750 H   0  0  0  0  0  0  0  0  0  0  0  0
   10.9081   15.6257   51.7430 H   0  0  0  0  0  0  0  0  0  0  0  0
   14.0453   13.9359   54.7012 H   0  0  0  0  0  0  0  0  0  0  0  0
   16.5496   13.7228   55.0964 H   0  0  0  0  0  0  0  0  0  0  0  0
   18.1968   13.0257   56.0853 H   0  0  0  0  0  0  0  0  0  0  0  0
   20.3082   12.0805   56.6965 H   0  0  0  0  0  0  0  0  0  0  0  0
   23.4513   13.8714   56.7159 H   0  0  0  0  0  0  0  0  0  0  0  0
   22.6650   12.8573   57.7259 H   0  0  0  0  0  0  0  0  0  0  0  0
   22.9206   12.4260   56.1717 H   0  0  0  0  0  0  0  0  0  0  0  0
   22.9843   16.1143   55.1005 H   0  0  0  0  0  0  0  0  0  0  0  0
   22.4574   16.5339   57.9152 H   0  0  0  0  0  0  0  0  0  0  0  0
   24.6290   17.4687   54.9713 H   0  0  0  0  0  0  0  0  0  0  0  0
   27.7202   20.3173   57.1182 H   0  0  0  0  0  0  0  0  0  0  0  0
   29.4938   21.2229   58.4608 H   0  0  0  0  0  0  0  0  0  0  0  0
   29.6757   20.1946   60.7289 H   0  0  0  0  0  0  0  0  0  0  0  0
   28.2433   19.4429   60.5056 H   0  0  0  0  0  0  0  0  0  0  0  0
   28.5554   22.4139   60.4449 H   0  0  0  0  0  0  0  0  0  0  0  0
   27.1229   21.6622   60.2215 H   0  0  0  0  0  0  0  0  0  0  0  0
   24.8690   18.8346   61.2548 H   0  0  0  0  0  0  0  0  0  0  0  0
   20.0347   16.6743   55.3753 H   0  0  0  0  0  0  0  0  0  0  0  0
   16.7922   16.4830   52.9025 H   0  0  0  0  0  0  0  0  0  0  0  0
   12.8593   16.3890   51.5647 H   0  0  0  0  0  0  0  0  0  0  0  0
   12.1389   13.1692   54.7916 H   0  0  0  0  0  0  0  0  0  0  0  0
  1  2  1  0  0  0  0
  2  3  2  0  0  0  0
  3  4  1  0  0  0  0
  4  5  1  0  0  0  0
  5  6  2  0  0  0  0
  6  7  1  0  0  0  0
  7  8  1  0  0  0  0
  8  9  1  0  0  0  0
  9 10  2  0  0  0  0
  9 11  1  0  0  0  0
 11 12  2  0  0  0  0
 12 13  1  0  0  0  0
 13 14  2  0  0  0  0
 14 15  1  0  0  0  0
 14 16  1  0  0  0  0
 16 17  1  0  0  0  0
 17 18  2  0  0  0  0
 18 19  1  0  0  0  0
 19 20  1  0  0  0  0
 20 21  2  0  0  0  0
 21 22  1  0  0  0  0
 22 23  2  0  0  0  0
 23 24  1  0  0  0  0
 24 25  1  0  0  0  0
 25 26  1  0  0  0  0
 26 27  1  0  0  0  0
 23 28  1  0  0  0  0
 28 29  2  0  0  0  0
 29 30  1  0  0  0  0
 30 31  2  0  0  0  0
 16 32  2  0  0  0  0
  7 33  2  0  0  0  0
 33 34  1  0  0  0  0
 34 35  1  0  0  0  0
 35 36  1  0  0  0  0
 35 37  1  0  0  0  0
 35 38  1  0  0  0  0
 34 39  2  0  0  0  0
  4 40  1  0  0  0  0
 40 41  2  0  0  0  0
 41  2  1  0  0  0  0
 39  5  1  0  0  0  0
 32 11  1  0  0  0  0
 31 19  1  0  0  0  0
 31 22  1  0  0  0  0
 27 25  1  0  0  0  0
  1 42  1  0  0  0  0
  1 43  1  0  0  0  0
  1 44  1  0  0  0  0
  3 45  1  0  0  0  0
  6 46  1  0  0  0  0
  8 47  1  0  0  0  0
 12 48  1  0  0  0  0
 13 49  1  0  0  0  0
 15 50  1  0  0  0  0
 15 51  1  0  0  0  0
 15 52  1  0  0  0  0
 17 53  1  0  0  0  0
 18 54  1  0  0  0  0
 20 55  1  0  0  0  0
 24 56  1  0  0  0  0
 25 57  1  0  0  0  0
 26 58  1  0  0  0  0
 26 59  1  0  0  0  0
 27 60  1  0  0  0  0
 27 61  1  0  0  0  0
 29 62  1  0  0  0  0
 32 63  1  0  0  0  0
 33 64  1  0  0  0  0
 39 65  1  0  0  0  0
 40 66  1  0  0  0  0
M  END
> <BIOSOLVEIT.HYDE_ESTIMATED_AFFINITY_LOWER_BOUNDARY [nM]>
0.000055

> <BIOSOLVEIT.HYDE_ESTIMATED_AFFINITY_UPPER_BOUNDARY [nM]>
0.005446

> <BIOSOLVEIT.HYDE_LIGAND_EFFICIENCY range: ++, +, 0, -, -->
+

> <BIOSOLVEIT.HYDE_LIGAND_LIPOPHILIC_EFFICIENCY range: ++, +, 0, -, -->
+

> <BIOSOLVEIT.INTER_CLASH range: red, yellow, green>
yellow

> <BIOSOLVEIT.INTRA_CLASH range: red, yellow, green>
red

> <BIOSOLVEIT.LOGP>
6.10214

> <BIOSOLVEIT.MOLECULAR WEIGHT>
558.565

> <BIOSOLVEIT.MOLECULE_CHECKSUM>
LTY5Ljk5NDQ7MS43MDcxOA==

> <BIOSOLVEIT.TORSION_QUALITY range: red, yellow, green, not rotatable>
yellow

> <BIOSOLVEIT.TPSA>
102.55

$$$$
3KFA_B91_3
foHydescor03192112273D 1   1.00000     0.00000     0
Hydescorer 1.1.0 fol007
 66 71  0  0  0  0            999 V2000
    8.3625   14.4395   52.1224 C   0  0  0  0  0  0  0  0  0  0  0  0
    9.7611   14.3336   52.7097 C   0  0  0  0  0  0  0  0  0  0  0  0
   10.8363   15.0695   52.3192 C   0  0  0  0  0  0  0  0  0  0  0  0
   11.8741   14.6601   53.0989 N   0  0  0  0  0  0  0  0  0  0  0  0
   13.1865   15.1439   53.0473 C   0  0  0  0  0  0  0  0  0  0  0  0
   14.1312   14.6391   53.9340 C   0  0  0  0  0  0  0  0  0  0  0  0
   15.4335   15.1247   53.8753 C   0  0  0  0  0  0  0  0  0  0  0  0
   16.4249   14.6140   54.7837 N   0  0  0  0  0  0  0  0  0  0  0  0
   17.5501   15.3795   55.2479 C   0  0  0  0  0  0  0  0  0  0  0  0
   17.4500   16.6325   55.3578 O   0  0  0  0  0  0  0  0  0  0  0  0
   18.7841   14.7252   55.6377 C   0  0  0  0  0  0  0  0  0  0  0  0
   18.8361   13.3373   55.7105 C   0  0  0  0  0  0  0  0  0  0  0  0
   20.0192   12.7099   56.0858 C   0  0  0  0  0  0  0  0  0  0  0  0
   21.1443   13.4702   56.3863 C   0  0  0  0  0  0  0  0  0  0  0  0
   22.4199   12.7498   56.7920 C   0  0  0  0  0  0  0  0  0  0  0  0
   21.0863   14.8584   56.3118 C   0  0  0  0  0  0  0  0  0  0  0  0
   22.2650   15.6961   56.6248 C   0  0  0  0  0  0  0  0  0  0  0  0
   22.7618   16.5780   55.7492 C   0  0  0  0  0  0  0  0  0  0  0  0
   23.8762   17.3751   56.0353 N   0  0  0  0  0  0  0  0  0  0  0  0
   24.9044   17.6117   55.1711 C   0  0  0  0  0  0  0  0  0  0  0  0
   25.7659   18.3964   55.7802 N   0  0  0  0  0  0  0  0  0  0  0  0
   25.2965   18.6680   57.0339 C   0  0  0  0  0  0  0  0  0  0  0  0
   25.7505   19.4141   58.1157 C   0  0  0  0  0  0  0  0  0  0  0  0
   26.9668   20.1022   58.0281 N   0  0  0  0  0  0  0  0  0  0  0  0
   27.9934   20.3280   59.0619 C   0  0  0  0  0  0  0  0  0  0  0  0
   27.6876   19.5669   60.3196 C   0  0  0  0  0  0  0  0  0  0  0  0
   27.4383   21.0469   60.2576 C   0  0  0  0  0  0  0  0  0  0  0  0
   25.0376   19.4863   59.2509 N   0  0  0  0  0  0  0  0  0  0  0  0
   23.8679   18.8464   59.3864 C   0  0  0  0  0  0  0  0  0  0  0  0
   23.4048   18.1183   58.3606 N   0  0  0  0  0  0  0  0  0  0  0  0
   24.0947   18.0299   57.2139 C   0  0  0  0  0  0  0  0  0  0  0  0
   19.9056   15.4915   55.9371 C   0  0  0  0  0  0  0  0  0  0  0  0
   15.7969   16.0990   52.9513 C   0  0  0  0  0  0  0  0  0  0  0  0
   14.8323   16.5871   52.0765 C   0  0  0  0  0  0  0  0  0  0  0  0
   15.2104   17.6523   51.0602 C   0  0  0  0  0  0  0  0  0  0  0  0
   15.0251   18.9185   51.5877 F   0  0  0  0  0  0  0  0  0  0  0  0
   16.5398   17.4985   50.7140 F   0  0  0  0  0  0  0  0  0  0  0  0
   14.4322   17.5419   49.9207 F   0  0  0  0  0  0  0  0  0  0  0  0
   13.5232   16.1181   52.1137 C   0  0  0  0  0  0  0  0  0  0  0  0
   11.4066   13.6939   53.9389 C   0  0  0  0  0  0  0  0  0  0  0  0
   10.1301   13.4878   53.7130 N   0  0  0  0  0  0  0  0  0  0  0  0
    7.7572   13.7909   52.5837 H   0  0  0  0  0  0  0  0  0  0  0  0
    8.0162   15.3687   52.2518 H   0  0  0  0  0  0  0  0  0  0  0  0
    8.3945   14.2287   51.1454 H   0  0  0  0  0  0  0  0  0  0  0  0
   10.8596   15.7688   51.6048 H   0  0  0  0  0  0  0  0  0  0  0  0
   13.8789   13.9391   54.6023 H   0  0  0  0  0  0  0  0  0  0  0  0
   16.3261   13.6741   55.1107 H   0  0  0  0  0  0  0  0  0  0  0  0
   18.0260   12.7926   55.4940 H   0  0  0  0  0  0  0  0  0  0  0  0
   20.0609   11.7122   56.1397 H   0  0  0  0  0  0  0  0  0  0  0  0
   23.1378   13.4213   56.9761 H   0  0  0  0  0  0  0  0  0  0  0  0
   22.2499   12.2093   57.6160 H   0  0  0  0  0  0  0  0  0  0  0  0
   22.7113   12.1451   56.0508 H   0  0  0  0  0  0  0  0  0  0  0  0
   22.7040   15.6003   57.5181 H   0  0  0  0  0  0  0  0  0  0  0  0
   22.3202   16.6710   54.8569 H   0  0  0  0  0  0  0  0  0  0  0  0
   24.9881   17.2528   54.2414 H   0  0  0  0  0  0  0  0  0  0  0  0
   27.1688   20.4988   57.1326 H   0  0  0  0  0  0  0  0  0  0  0  0
   28.9446   20.4769   58.7916 H   0  0  0  0  0  0  0  0  0  0  0  0
   28.4335   19.2086   60.8811 H   0  0  0  0  0  0  0  0  0  0  0  0
   26.9167   18.9305   60.3440 H   0  0  0  0  0  0  0  0  0  0  0  0
   28.0182   21.6739   60.7778 H   0  0  0  0  0  0  0  0  0  0  0  0
   26.5013   21.3959   60.2408 H   0  0  0  0  0  0  0  0  0  0  0  0
   23.3492   18.9109   60.2388 H   0  0  0  0  0  0  0  0  0  0  0  0
   19.8635   16.4892   55.8834 H   0  0  0  0  0  0  0  0  0  0  0  0
   16.7355   16.4424   52.9167 H   0  0  0  0  0  0  0  0  0  0  0  0
   12.8365   16.4750   51.4804 H   0  0  0  0  0  0  0  0  0  0  0  0
   11.9539   13.2139   54.6245 H   0  0  0  0  0  0  0  0  0  0  0  0
  1  2  1  0  0  0  0
  2  3  2  0  0  0  0
  3  4  1  0  0  0  0
  4  5  1  0  0  0  0
  5  6  2  0  0  0  0
  6  7  1  0  0  0  0
  7  8  1  0  0  0  0
  8  9  1  0  0  0  0
  9 10  2  0  0  0  0
  9 11  1  0  0  0  0
 11 12  2  0  0  0  0
 12 13  1  0  0  0  0
 13 14  2  0  0  0  0
 14 15  1  0  0  0  0
 14 16  1  0  0  0  0
 16 17  1  0  0  0  0
 17 18  2  0  0  0  0
 18 19  1  0  0  0  0
 19 20  1  0  0  0  0
 20 21  2  0  0  0  0
 21 22  1  0  0  0  0
 22 23  2  0  0  0  0
 23 24  1  0  0  0  0
 24 25  1  0  0  0  0
 25 26  1  0  0  0  0
 26 27  1  0  0  0  0
 23 28  1  0  0  0  0
 28 29  2  0  0  0  0
 29 30  1  0  0  0  0
 30 31  2  0  0  0  0
 16 32  2  0  0  0  0
  7 33  2  0  0  0  0
 33 34  1  0  0  0  0
 34 35  1  0  0  0  0
 35 36  1  0  0  0  0
 35 37  1  0  0  0  0
 35 38  1  0  0  0  0
 34 39  2  0  0  0  0
  4 40  1  0  0  0  0
 40 41  2  0  0  0  0
 41  2  1  0  0  0  0
 39  5  1  0  0  0  0
 32 11  1  0  0  0  0
 31 19  1  0  0  0  0
 31 22  1  0  0  0  0
 27 25  1  0  0  0  0
  1 42  1  0  0  0  0
  1 43  1  0  0  0  0
  1 44  1  0  0  0  0
  3 45  1  0  0  0  0
  6 46  1  0  0  0  0
  8 47  1  0  0  0  0
 12 48  1  0  0  0  0
 13 49  1  0  0  0  0
 15 50  1  0  0  0  0
 15 51  1  0  0  0  0
 15 52  1  0  0  0  0
 17 53  1  0  0  0  0
 18 54  1  0  0  0  0
 20 55  1  0  0  0  0
 24 56  1  0  0  0  0
 25 57  1  0  0  0  0
 26 58  1  0  0  0  0
 26 59  1  0  0  0  0
 27 60  1  0  0  0  0
 27 61  1  0  0  0  0
 29 62  1  0  0  0  0
 32 63  1  0  0  0  0
 33 64  1  0  0  0  0
 39 65  1  0  0  0  0
 40 66  1  0  0  0  0
M  END
> <BIOSOLVEIT.HYDE_ESTIMATED_AFFINITY_LOWER_BOUNDARY [nM]>
0.000017

> <BIOSOLVEIT.HYDE_ESTIMATED_AFFINITY_UPPER_BOUNDARY [nM]>
0.001676

> <BIOSOLVEIT.HYDE_LIGAND_EFFICIENCY range: ++, +, 0, -, -->
+

> <BIOSOLVEIT.HYDE_LIGAND_LIPOPHILIC_EFFICIENCY range: ++, +, 0, -, -->
++

> <BIOSOLVEIT.INTER_CLASH range: red, yellow, green>
yellow

> <BIOSOLVEIT.INTRA_CLASH range: red, yellow, green>
yellow

> <BIOSOLVEIT.LOGP>
6.10214

> <BIOSOLVEIT.MOLECULAR WEIGHT>
558.565

> <BIOSOLVEIT.MOLECULE_CHECKSUM>
LTcyLjkxNjU7MS43Nzg0NQ==

> <BIOSOLVEIT.TORSION_QUALITY range: red, yellow, green, not rotatable>
red

> <BIOSOLVEIT.TPSA>
102.55

$$$$
