1FPU_PRC_1
foHydescor03222115263D 1   1.00000     0.00000     0
Hydescorer 1.1.0 fol007
 47 50  0  0  0  0            999 V2000
   -2.9587    9.1040   20.7310 C   0  0  0  0  0  0  0  0  0  0  0  0
   -2.9536    8.6760   22.1895 C   0  0  0  0  0  0  0  0  0  0  0  0
   -4.0077    9.0714   23.0064 C   0  0  0  0  0  0  0  0  0  0  0  0
   -4.0296    8.6940   24.3452 C   0  0  0  0  0  0  0  0  0  0  0  0
   -2.9908    7.9209   24.8529 C   0  0  0  0  0  0  0  0  0  0  0  0
   -3.0034    7.5255   26.2353 N   0  0  0  0  0  0  0  0  0  0  0  0
   -1.8228    7.4424   27.0566 C   0  0  0  0  0  0  0  0  0  0  0  0
   -0.6958    7.7260   26.5669 O   0  0  0  0  0  0  0  0  0  0  0  0
   -1.9017    7.0354   28.4806 C   0  0  0  0  0  0  0  0  0  0  0  0
   -1.1971    5.9165   28.9120 C   0  0  0  0  0  0  0  0  0  0  0  0
   -1.2729    5.5386   30.2481 C   0  0  0  0  0  0  0  0  0  0  0  0
   -2.0550    6.2962   31.1134 C   0  0  0  0  0  0  0  0  0  0  0  0
   -2.7256    7.3714   30.6735 N   0  0  0  0  0  0  0  0  0  0  0  0
   -2.6685    7.7566   29.3898 C   0  0  0  0  0  0  0  0  0  0  0  0
   -1.9331    7.5215   24.0424 C   0  0  0  0  0  0  0  0  0  0  0  0
   -1.9177    7.9028   22.7045 C   0  0  0  0  0  0  0  0  0  0  0  0
   -0.8601    7.5083   21.8761 N   0  0  0  0  0  0  0  0  0  0  0  0
   -1.0022    6.5726   20.7984 C   0  0  0  0  0  0  0  0  0  0  0  0
   -2.0691    5.7601   20.7824 N   0  0  0  0  0  0  0  0  0  0  0  0
   -2.2535    4.8659   19.8001 C   0  0  0  0  0  0  0  0  0  0  0  0
   -1.3210    4.7745   18.7721 C   0  0  0  0  0  0  0  0  0  0  0  0
   -0.2178    5.6210   18.7973 C   0  0  0  0  0  0  0  0  0  0  0  0
    0.7606    5.5320   17.7281 C   0  0  0  0  0  0  0  0  0  0  0  0
    1.6602    4.4714   17.7110 C   0  0  0  0  0  0  0  0  0  0  0  0
    2.5950    4.3893   16.6850 C   0  0  0  0  0  0  0  0  0  0  0  0
    2.5996    5.3757   15.7046 C   0  0  0  0  0  0  0  0  0  0  0  0
    1.7218    6.3893   15.7429 N   0  0  0  0  0  0  0  0  0  0  0  0
    0.8101    6.4909   16.7217 C   0  0  0  0  0  0  0  0  0  0  0  0
   -0.0953    6.4931   19.8113 N   0  0  0  0  0  0  0  0  0  0  0  0
   -2.1431    8.7466   20.2759 H   0  0  0  0  0  0  0  0  0  0  0  0
   -3.7761    8.7445   20.2810 H   0  0  0  0  0  0  0  0  0  0  0  0
   -2.9600   10.1026   20.6766 H   0  0  0  0  0  0  0  0  0  0  0  0
   -4.7497    9.6270   22.6313 H   0  0  0  0  0  0  0  0  0  0  0  0
   -4.7850    8.9758   24.9368 H   0  0  0  0  0  0  0  0  0  0  0  0
   -3.8832    7.2946   26.6510 H   0  0  0  0  0  0  0  0  0  0  0  0
   -0.6420    5.3895   28.2685 H   0  0  0  0  0  0  0  0  0  0  0  0
   -0.7747    4.7377   30.5803 H   0  0  0  0  0  0  0  0  0  0  0  0
   -2.1183    6.0357   32.0767 H   0  0  0  0  0  0  0  0  0  0  0  0
   -3.1773    8.5623   29.0864 H   0  0  0  0  0  0  0  0  0  0  0  0
   -1.1913    6.9658   24.4177 H   0  0  0  0  0  0  0  0  0  0  0  0
    0.0442    7.9006   22.0451 H   0  0  0  0  0  0  0  0  0  0  0  0
   -3.0558    4.2689   19.8067 H   0  0  0  0  0  0  0  0  0  0  0  0
   -1.4412    4.1143   18.0307 H   0  0  0  0  0  0  0  0  0  0  0  0
    1.6351    3.7755   18.4288 H   0  0  0  0  0  0  0  0  0  0  0  0
    3.2513    3.6355   16.6525 H   0  0  0  0  0  0  0  0  0  0  0  0
    3.2664    5.3288   14.9609 H   0  0  0  0  0  0  0  0  0  0  0  0
    0.1661    7.2559   16.7278 H   0  0  0  0  0  0  0  0  0  0  0  0
  1  2  1  0  0  0  0
  2  3  2  0  0  0  0
  3  4  1  0  0  0  0
  4  5  2  0  0  0  0
  5  6  1  0  0  0  0
  6  7  1  0  0  0  0
  7  8  2  0  0  0  0
  7  9  1  0  0  0  0
  9 10  2  0  0  0  0
 10 11  1  0  0  0  0
 11 12  2  0  0  0  0
 12 13  1  0  0  0  0
 13 14  2  0  0  0  0
  5 15  1  0  0  0  0
 15 16  2  0  0  0  0
 16 17  1  0  0  0  0
 17 18  1  0  0  0  0
 18 19  2  0  0  0  0
 19 20  1  0  0  0  0
 20 21  2  0  0  0  0
 21 22  1  0  0  0  0
 22 23  1  0  0  0  0
 23 24  2  0  0  0  0
 24 25  1  0  0  0  0
 25 26  2  0  0  0  0
 26 27  1  0  0  0  0
 27 28  2  0  0  0  0
 22 29  2  0  0  0  0
 16  2  1  0  0  0  0
 29 18  1  0  0  0  0
 14  9  1  0  0  0  0
 28 23  1  0  0  0  0
  1 30  1  0  0  0  0
  1 31  1  0  0  0  0
  1 32  1  0  0  0  0
  3 33  1  0  0  0  0
  4 34  1  0  0  0  0
  6 35  1  0  0  0  0
 10 36  1  0  0  0  0
 11 37  1  0  0  0  0
 12 38  1  0  0  0  0
 14 39  1  0  0  0  0
 15 40  1  0  0  0  0
 17 41  1  0  0  0  0
 20 42  1  0  0  0  0
 21 43  1  0  0  0  0
 24 44  1  0  0  0  0
 25 45  1  0  0  0  0
 26 46  1  0  0  0  0
 28 47  1  0  0  0  0
M  END
> <BIOSOLVEIT.HYDE_ESTIMATED_AFFINITY_LOWER_BOUNDARY [nM]>
22104857035.210873

> <BIOSOLVEIT.HYDE_ESTIMATED_AFFINITY_UPPER_BOUNDARY [nM]>
2196248240706.289307

> <BIOSOLVEIT.HYDE_LIGAND_EFFICIENCY range: ++, +, 0, -, -->
--

> <BIOSOLVEIT.HYDE_LIGAND_LIPOPHILIC_EFFICIENCY range: ++, +, 0, -, -->
--

> <BIOSOLVEIT.INTER_CLASH range: red, yellow, green>
green

> <BIOSOLVEIT.INTRA_CLASH range: red, yellow, green>
yellow

> <BIOSOLVEIT.LOGP>
4.23792

> <BIOSOLVEIT.MOLECULAR WEIGHT>
382.425

> <BIOSOLVEIT.MOLECULE_CHECKSUM>
MTMuMzc0Mzsw

> <BIOSOLVEIT.TORSION_QUALITY range: red, yellow, green, not rotatable>
red

> <BIOSOLVEIT.TPSA>
92.69

$$$$
1FPU_PRC_2
foHydescor03222115263D 1   1.00000     0.00000     0
Hydescorer 1.1.0 fol007
 47 50  0  0  0  0            999 V2000
   -4.1436    9.1662   23.7779 C   0  0  0  0  0  0  0  0  0  0  0  0
   -3.3152    8.3958   24.7932 C   0  0  0  0  0  0  0  0  0  0  0  0
   -3.8628    8.1373   26.0454 C   0  0  0  0  0  0  0  0  0  0  0  0
   -3.1276    7.4340   26.9943 C   0  0  0  0  0  0  0  0  0  0  0  0
   -1.8464    6.9953   26.6765 C   0  0  0  0  0  0  0  0  0  0  0  0
   -1.0981    6.2869   27.6243 N   0  0  0  0  0  0  0  0  0  0  0  0
   -0.8425    4.8712   27.5487 C   0  0  0  0  0  0  0  0  0  0  0  0
   -1.3046    4.1997   26.5861 O   0  0  0  0  0  0  0  0  0  0  0  0
   -0.0341    4.1780   28.5813 C   0  0  0  0  0  0  0  0  0  0  0  0
   -0.1154    4.5935   29.9062 C   0  0  0  0  0  0  0  0  0  0  0  0
    0.6432    3.9405   30.8712 C   0  0  0  0  0  0  0  0  0  0  0  0
    1.4625    2.8878   30.4776 C   0  0  0  0  0  0  0  0  0  0  0  0
    1.5239    2.5054   29.1934 N   0  0  0  0  0  0  0  0  0  0  0  0
    0.8019    3.1189   28.2436 C   0  0  0  0  0  0  0  0  0  0  0  0
   -1.2920    7.2499   25.4264 C   0  0  0  0  0  0  0  0  0  0  0  0
   -2.0328    7.9540   24.4824 C   0  0  0  0  0  0  0  0  0  0  0  0
   -1.4884    8.2178   23.2197 N   0  0  0  0  0  0  0  0  0  0  0  0
   -1.5771    7.3111   22.1119 C   0  0  0  0  0  0  0  0  0  0  0  0
   -1.9815    6.0521   22.3359 N   0  0  0  0  0  0  0  0  0  0  0  0
   -2.0830    5.1614   21.3384 C   0  0  0  0  0  0  0  0  0  0  0  0
   -1.7630    5.5461   20.0405 C   0  0  0  0  0  0  0  0  0  0  0  0
   -1.3445    6.8535   19.8180 C   0  0  0  0  0  0  0  0  0  0  0  0
   -1.0084    7.2632   18.4662 C   0  0  0  0  0  0  0  0  0  0  0  0
   -0.9891    8.6167   18.1468 C   0  0  0  0  0  0  0  0  0  0  0  0
   -0.6658    9.0051   16.8514 C   0  0  0  0  0  0  0  0  0  0  0  0
   -0.3708    8.0218   15.9129 C   0  0  0  0  0  0  0  0  0  0  0  0
   -0.3962    6.7226   16.2452 N   0  0  0  0  0  0  0  0  0  0  0  0
   -0.7047    6.3222   17.4878 C   0  0  0  0  0  0  0  0  0  0  0  0
   -1.2654    7.6935   20.8630 N   0  0  0  0  0  0  0  0  0  0  0  0
   -3.6200    9.2729   22.9326 H   0  0  0  0  0  0  0  0  0  0  0  0
   -4.9872    8.6645   23.5864 H   0  0  0  0  0  0  0  0  0  0  0  0
   -4.3686   10.0681   24.1467 H   0  0  0  0  0  0  0  0  0  0  0  0
   -4.7848    8.4569   26.2636 H   0  0  0  0  0  0  0  0  0  0  0  0
   -3.5166    7.2456   27.8961 H   0  0  0  0  0  0  0  0  0  0  0  0
   -0.7190    6.7932   28.3990 H   0  0  0  0  0  0  0  0  0  0  0  0
   -0.7129    5.3537   30.1618 H   0  0  0  0  0  0  0  0  0  0  0  0
    0.6005    4.2222   31.8298 H   0  0  0  0  0  0  0  0  0  0  0  0
    2.0134    2.4093   31.1614 H   0  0  0  0  0  0  0  0  0  0  0  0
    0.8647    2.8147   27.2931 H   0  0  0  0  0  0  0  0  0  0  0  0
   -0.3699    6.9300   25.2083 H   0  0  0  0  0  0  0  0  0  0  0  0
   -1.0115    9.0860   23.0828 H   0  0  0  0  0  0  0  0  0  0  0  0
   -2.3865    4.2273   21.5264 H   0  0  0  0  0  0  0  0  0  0  0  0
   -1.8325    4.8963   19.2835 H   0  0  0  0  0  0  0  0  0  0  0  0
   -1.2052    9.3031   18.8412 H   0  0  0  0  0  0  0  0  0  0  0  0
   -0.6458    9.9726   16.5994 H   0  0  0  0  0  0  0  0  0  0  0  0
   -0.1365    8.2872   14.9777 H   0  0  0  0  0  0  0  0  0  0  0  0
   -0.7163    5.3475   17.7108 H   0  0  0  0  0  0  0  0  0  0  0  0
  1  2  1  0  0  0  0
  2  3  2  0  0  0  0
  3  4  1  0  0  0  0
  4  5  2  0  0  0  0
  5  6  1  0  0  0  0
  6  7  1  0  0  0  0
  7  8  2  0  0  0  0
  7  9  1  0  0  0  0
  9 10  2  0  0  0  0
 10 11  1  0  0  0  0
 11 12  2  0  0  0  0
 12 13  1  0  0  0  0
 13 14  2  0  0  0  0
  5 15  1  0  0  0  0
 15 16  2  0  0  0  0
 16 17  1  0  0  0  0
 17 18  1  0  0  0  0
 18 19  2  0  0  0  0
 19 20  1  0  0  0  0
 20 21  2  0  0  0  0
 21 22  1  0  0  0  0
 22 23  1  0  0  0  0
 23 24  2  0  0  0  0
 24 25  1  0  0  0  0
 25 26  2  0  0  0  0
 26 27  1  0  0  0  0
 27 28  2  0  0  0  0
 22 29  2  0  0  0  0
 16  2  1  0  0  0  0
 29 18  1  0  0  0  0
 14  9  1  0  0  0  0
 28 23  1  0  0  0  0
  1 30  1  0  0  0  0
  1 31  1  0  0  0  0
  1 32  1  0  0  0  0
  3 33  1  0  0  0  0
  4 34  1  0  0  0  0
  6 35  1  0  0  0  0
 10 36  1  0  0  0  0
 11 37  1  0  0  0  0
 12 38  1  0  0  0  0
 14 39  1  0  0  0  0
 15 40  1  0  0  0  0
 17 41  1  0  0  0  0
 20 42  1  0  0  0  0
 21 43  1  0  0  0  0
 24 44  1  0  0  0  0
 25 45  1  0  0  0  0
 26 46  1  0  0  0  0
 28 47  1  0  0  0  0
M  END
> <BIOSOLVEIT.HYDE_ESTIMATED_AFFINITY_LOWER_BOUNDARY [nM]>
11496652.330554

> <BIOSOLVEIT.HYDE_ESTIMATED_AFFINITY_UPPER_BOUNDARY [nM]>
1142260382.628628

> <BIOSOLVEIT.HYDE_LIGAND_EFFICIENCY range: ++, +, 0, -, -->
--

> <BIOSOLVEIT.HYDE_LIGAND_LIPOPHILIC_EFFICIENCY range: ++, +, 0, -, -->
--

> <BIOSOLVEIT.INTER_CLASH range: red, yellow, green>
yellow

> <BIOSOLVEIT.INTRA_CLASH range: red, yellow, green>
green

> <BIOSOLVEIT.LOGP>
4.23792

> <BIOSOLVEIT.MOLECULAR WEIGHT>
382.425

> <BIOSOLVEIT.MOLECULE_CHECKSUM>
LTUuMzcwMjg7MC4xODUxODI=

> <BIOSOLVEIT.TORSION_QUALITY range: red, yellow, green, not rotatable>
red

> <BIOSOLVEIT.TPSA>
92.69

$$$$
1FPU_PRC_3
foHydescor03222115263D 1   1.00000     0.00000     0
Hydescorer 1.1.0 fol007
 47 50  0  0  0  0            999 V2000
   -3.8007    8.8322   22.1342 C   0  0  0  0  0  0  0  0  0  0  0  0
   -3.2112    8.1823   23.3756 C   0  0  0  0  0  0  0  0  0  0  0  0
   -3.9825    8.1265   24.5318 C   0  0  0  0  0  0  0  0  0  0  0  0
   -3.4690    7.5372   25.6826 C   0  0  0  0  0  0  0  0  0  0  0  0
   -2.1829    7.0079   25.6622 C   0  0  0  0  0  0  0  0  0  0  0  0
   -1.6423    6.3968   26.8463 N   0  0  0  0  0  0  0  0  0  0  0  0
   -1.1999    5.0274   26.9113 C   0  0  0  0  0  0  0  0  0  0  0  0
   -1.2767    4.2931   25.8890 O   0  0  0  0  0  0  0  0  0  0  0  0
   -0.6429    4.4562   28.1617 C   0  0  0  0  0  0  0  0  0  0  0  0
   -1.1381    4.8840   29.3889 C   0  0  0  0  0  0  0  0  0  0  0  0
   -0.6140    4.3455   30.5588 C   0  0  0  0  0  0  0  0  0  0  0  0
    0.3936    3.3916   30.4625 C   0  0  0  0  0  0  0  0  0  0  0  0
    0.8550    2.9951   29.2670 N   0  0  0  0  0  0  0  0  0  0  0  0
    0.3658    3.4991   28.1240 C   0  0  0  0  0  0  0  0  0  0  0  0
   -1.4053    7.0599   24.5098 C   0  0  0  0  0  0  0  0  0  0  0  0
   -1.9254    7.6508   23.3626 C   0  0  0  0  0  0  0  0  0  0  0  0
   -1.1550    7.7105   22.1950 N   0  0  0  0  0  0  0  0  0  0  0  0
   -1.2885    6.7847   21.1076 C   0  0  0  0  0  0  0  0  0  0  0  0
   -2.3457    5.9596   21.0854 N   0  0  0  0  0  0  0  0  0  0  0  0
   -2.5216    5.0737   20.0940 C   0  0  0  0  0  0  0  0  0  0  0  0
   -1.5903    5.0046   19.0630 C   0  0  0  0  0  0  0  0  0  0  0  0
   -0.4974    5.8639   19.0948 C   0  0  0  0  0  0  0  0  0  0  0  0
    0.4795    5.7980   18.0226 C   0  0  0  0  0  0  0  0  0  0  0  0
    1.3067    4.6847   17.9187 C   0  0  0  0  0  0  0  0  0  0  0  0
    2.2402    4.6250   16.8899 C   0  0  0  0  0  0  0  0  0  0  0  0
    2.3164    5.6862   15.9942 C   0  0  0  0  0  0  0  0  0  0  0  0
    1.5077    6.7495   16.1153 N   0  0  0  0  0  0  0  0  0  0  0  0
    0.5987    6.8309   17.0986 C   0  0  0  0  0  0  0  0  0  0  0  0
   -0.3829    6.7266   20.1177 N   0  0  0  0  0  0  0  0  0  0  0  0
   -3.1332    8.7967   21.3905 H   0  0  0  0  0  0  0  0  0  0  0  0
   -4.6288    8.3419   21.8626 H   0  0  0  0  0  0  0  0  0  0  0  0
   -4.0279    9.7855   22.3330 H   0  0  0  0  0  0  0  0  0  0  0  0
   -4.9061    8.5099   24.5358 H   0  0  0  0  0  0  0  0  0  0  0  0
   -4.0193    7.4946   26.5165 H   0  0  0  0  0  0  0  0  0  0  0  0
   -1.5692    6.9550   27.6728 H   0  0  0  0  0  0  0  0  0  0  0  0
   -1.8632    5.5714   29.4296 H   0  0  0  0  0  0  0  0  0  0  0  0
   -0.9549    4.6383   31.4521 H   0  0  0  0  0  0  0  0  0  0  0  0
    0.7793    2.9959   31.2960 H   0  0  0  0  0  0  0  0  0  0  0  0
    0.7261    3.1867   27.2451 H   0  0  0  0  0  0  0  0  0  0  0  0
   -0.4818    6.6763   24.5059 H   0  0  0  0  0  0  0  0  0  0  0  0
   -0.4743    8.4387   22.1147 H   0  0  0  0  0  0  0  0  0  0  0  0
   -3.3166    4.4671   20.0960 H   0  0  0  0  0  0  0  0  0  0  0  0
   -1.7044    4.3509   18.3149 H   0  0  0  0  0  0  0  0  0  0  0  0
    1.2308    3.9354   18.5765 H   0  0  0  0  0  0  0  0  0  0  0  0
    2.8451    3.8344   16.7959 H   0  0  0  0  0  0  0  0  0  0  0  0
    2.9833    5.6562   15.2497 H   0  0  0  0  0  0  0  0  0  0  0  0
    0.0070    7.6342   17.1674 H   0  0  0  0  0  0  0  0  0  0  0  0
  1  2  1  0  0  0  0
  2  3  2  0  0  0  0
  3  4  1  0  0  0  0
  4  5  2  0  0  0  0
  5  6  1  0  0  0  0
  6  7  1  0  0  0  0
  7  8  2  0  0  0  0
  7  9  1  0  0  0  0
  9 10  2  0  0  0  0
 10 11  1  0  0  0  0
 11 12  2  0  0  0  0
 12 13  1  0  0  0  0
 13 14  2  0  0  0  0
  5 15  1  0  0  0  0
 15 16  2  0  0  0  0
 16 17  1  0  0  0  0
 17 18  1  0  0  0  0
 18 19  2  0  0  0  0
 19 20  1  0  0  0  0
 20 21  2  0  0  0  0
 21 22  1  0  0  0  0
 22 23  1  0  0  0  0
 23 24  2  0  0  0  0
 24 25  1  0  0  0  0
 25 26  2  0  0  0  0
 26 27  1  0  0  0  0
 27 28  2  0  0  0  0
 22 29  2  0  0  0  0
 16  2  1  0  0  0  0
 29 18  1  0  0  0  0
 14  9  1  0  0  0  0
 28 23  1  0  0  0  0
  1 30  1  0  0  0  0
  1 31  1  0  0  0  0
  1 32  1  0  0  0  0
  3 33  1  0  0  0  0
  4 34  1  0  0  0  0
  6 35  1  0  0  0  0
 10 36  1  0  0  0  0
 11 37  1  0  0  0  0
 12 38  1  0  0  0  0
 14 39  1  0  0  0  0
 15 40  1  0  0  0  0
 17 41  1  0  0  0  0
 20 42  1  0  0  0  0
 21 43  1  0  0  0  0
 24 44  1  0  0  0  0
 25 45  1  0  0  0  0
 26 46  1  0  0  0  0
 28 47  1  0  0  0  0
M  END
> <BIOSOLVEIT.HYDE_ESTIMATED_AFFINITY_LOWER_BOUNDARY [nM]>
7549450.068427

> <BIOSOLVEIT.HYDE_ESTIMATED_AFFINITY_UPPER_BOUNDARY [nM]>
750082500.179561

> <BIOSOLVEIT.HYDE_LIGAND_EFFICIENCY range: ++, +, 0, -, -->
--

> <BIOSOLVEIT.HYDE_LIGAND_LIPOPHILIC_EFFICIENCY range: ++, +, 0, -, -->
--

> <BIOSOLVEIT.INTER_CLASH range: red, yellow, green>
yellow

> <BIOSOLVEIT.INTRA_CLASH range: red, yellow, green>
green

> <BIOSOLVEIT.LOGP>
4.23792

> <BIOSOLVEIT.MOLECULAR WEIGHT>
382.425

> <BIOSOLVEIT.MOLECULE_CHECKSUM>
LTYuNDEyODg7MC4yMjExMzQ=

> <BIOSOLVEIT.TORSION_QUALITY range: red, yellow, green, not rotatable>
red

> <BIOSOLVEIT.TPSA>
92.69

$$$$
6HD6_FYH_1
foHydescor03222115263D 1   1.00000     0.00000     0
Hydescorer 1.1.0 fol007
 47 49  0  0  0  0            999 V2000
   -2.5389    8.0317   25.7077 O   0  0  0  0  0  0  0  0  0  0  0  0
   -1.8928    6.9498   25.7678 C   0  0  0  0  0  0  0  0  0  0  0  0
   -1.7929    6.1150   24.6016 N   0  0  0  0  0  0  0  0  0  0  0  0
   -1.8092    6.6192   23.2545 C   0  0  0  0  0  0  0  0  0  0  0  0
   -1.7547    7.9918   23.0340 C   0  0  0  0  0  0  0  0  0  0  0  0
   -1.7698    8.4887   21.7343 C   0  0  0  0  0  0  0  0  0  0  0  0
   -1.8404    7.5984   20.6679 C   0  0  0  0  0  0  0  0  0  0  0  0
   -1.8565    8.0676   19.4028 O   0  0  0  0  0  0  0  0  0  0  0  0
   -2.9336    8.7850   18.8037 C   0  0  0  0  0  0  0  0  0  0  0  0
   -3.1826    9.9483   19.5096 F   0  0  0  0  0  0  0  0  0  0  0  0
   -4.0673    7.9964   18.8306 F   0  0  0  0  0  0  0  0  0  0  0  0
   -2.6317    9.0870   17.4879 F   0  0  0  0  0  0  0  0  0  0  0  0
   -1.8959    6.2240   20.8790 C   0  0  0  0  0  0  0  0  0  0  0  0
   -1.8799    5.7361   22.1815 C   0  0  0  0  0  0  0  0  0  0  0  0
   -1.3022    6.5408   27.0271 C   0  0  0  0  0  0  0  0  0  0  0  0
   -1.2777    7.4259   28.1000 C   0  0  0  0  0  0  0  0  0  0  0  0
   -0.7069    7.0161   29.3007 C   0  0  0  0  0  0  0  0  0  0  0  0
   -0.1654    5.7420   29.4378 C   0  0  0  0  0  0  0  0  0  0  0  0
   -0.2012    4.8729   28.3519 C   0  0  0  0  0  0  0  0  0  0  0  0
    0.3839    3.4855   28.4894 C   0  0  0  0  0  0  0  0  0  0  0  0
   -0.3615    2.6618   29.4601 N   0  3  0  0  0  0  0  0  0  0  0  0
   -1.7655    3.0881   29.5564 C   0  0  0  0  0  0  0  0  0  0  0  0
   -2.5076    2.2303   30.5689 C   0  0  0  0  0  0  0  0  0  0  0  0
   -1.8757    2.3034   31.8394 O   0  0  0  0  0  0  0  0  0  0  0  0
   -0.5168    1.8922   31.7896 C   0  0  0  0  0  0  0  0  0  0  0  0
    0.2549    2.7426   30.7926 C   0  0  0  0  0  0  0  0  0  0  0  0
   -0.7670    5.2620   27.1420 C   0  0  0  0  0  0  0  0  0  0  0  0
   -1.7072    5.1276   24.7344 H   0  0  0  0  0  0  0  0  0  0  0  0
   -1.7047    8.6212   23.8095 H   0  0  0  0  0  0  0  0  0  0  0  0
   -1.7304    9.4742   21.5689 H   0  0  0  0  0  0  0  0  0  0  0  0
   -1.9466    5.5946   20.1036 H   0  0  0  0  0  0  0  0  0  0  0  0
   -1.9193    4.7506   22.3468 H   0  0  0  0  0  0  0  0  0  0  0  0
   -1.6648    8.3435   28.0095 H   0  0  0  0  0  0  0  0  0  0  0  0
   -0.6855    7.6466   30.0765 H   0  0  0  0  0  0  0  0  0  0  0  0
    0.2435    5.4550   30.3040 H   0  0  0  0  0  0  0  0  0  0  0  0
    1.3326    3.5647   28.7953 H   0  0  0  0  0  0  0  0  0  0  0  0
    0.3579    3.0348   27.5971 H   0  0  0  0  0  0  0  0  0  0  0  0
   -0.3376    1.7098   29.1550 H   0  0  0  0  0  0  0  0  0  0  0  0
   -2.2013    2.9938   28.6613 H   0  0  0  0  0  0  0  0  0  0  0  0
   -1.8010    4.0448   29.8453 H   0  0  0  0  0  0  0  0  0  0  0  0
   -2.5101    1.2802   30.2567 H   0  0  0  0  0  0  0  0  0  0  0  0
   -3.4491    2.5570   30.6501 H   0  0  0  0  0  0  0  0  0  0  0  0
   -0.4722    0.9332   31.5096 H   0  0  0  0  0  0  0  0  0  0  0  0
   -0.1077    1.9940   32.6964 H   0  0  0  0  0  0  0  0  0  0  0  0
    1.1976    2.4133   30.7395 H   0  0  0  0  0  0  0  0  0  0  0  0
    0.2510    3.6943   31.0997 H   0  0  0  0  0  0  0  0  0  0  0  0
   -0.7885    4.6315   26.3661 H   0  0  0  0  0  0  0  0  0  0  0  0
  1  2  2  0  0  0  0
  2  3  1  0  0  0  0
  3  4  1  0  0  0  0
  4  5  2  0  0  0  0
  5  6  1  0  0  0  0
  6  7  2  0  0  0  0
  7  8  1  0  0  0  0
  8  9  1  0  0  0  0
  9 10  1  0  0  0  0
  9 11  1  0  0  0  0
  9 12  1  0  0  0  0
  7 13  1  0  0  0  0
 13 14  2  0  0  0  0
  2 15  1  0  0  0  0
 15 16  2  0  0  0  0
 16 17  1  0  0  0  0
 17 18  2  0  0  0  0
 18 19  1  0  0  0  0
 19 20  1  0  0  0  0
 20 21  1  0  0  0  0
 21 22  1  0  0  0  0
 22 23  1  0  0  0  0
 23 24  1  0  0  0  0
 24 25  1  0  0  0  0
 25 26  1  0  0  0  0
 19 27  2  0  0  0  0
 14  4  1  0  0  0  0
 27 15  1  0  0  0  0
 26 21  1  0  0  0  0
  3 28  1  0  0  0  0
  5 29  1  0  0  0  0
  6 30  1  0  0  0  0
 13 31  1  0  0  0  0
 14 32  1  0  0  0  0
 16 33  1  0  0  0  0
 17 34  1  0  0  0  0
 18 35  1  0  0  0  0
 20 36  1  0  0  0  0
 20 37  1  0  0  0  0
 21 38  1  0  0  0  0
 22 39  1  0  0  0  0
 22 40  1  0  0  0  0
 23 41  1  0  0  0  0
 23 42  1  0  0  0  0
 25 43  1  0  0  0  0
 25 44  1  0  0  0  0
 26 45  1  0  0  0  0
 26 46  1  0  0  0  0
 27 47  1  0  0  0  0
M  CHG  1  21   1
M  END
> <BIOSOLVEIT.HYDE_ESTIMATED_AFFINITY_LOWER_BOUNDARY [nM]>
2294608.645510

> <BIOSOLVEIT.HYDE_ESTIMATED_AFFINITY_UPPER_BOUNDARY [nM]>
227982935.731452

> <BIOSOLVEIT.HYDE_LIGAND_EFFICIENCY range: ++, +, 0, -, -->
--

> <BIOSOLVEIT.HYDE_LIGAND_LIPOPHILIC_EFFICIENCY range: ++, +, 0, -, -->
--

> <BIOSOLVEIT.INTER_CLASH range: red, yellow, green>
green

> <BIOSOLVEIT.INTRA_CLASH range: red, yellow, green>
yellow

> <BIOSOLVEIT.LOGP>
2.2526

> <BIOSOLVEIT.MOLECULAR WEIGHT>
381.372

> <BIOSOLVEIT.MOLECULE_CHECKSUM>
LTkuMzY1MTswLjM0Njg1Ng==

> <BIOSOLVEIT.TORSION_QUALITY range: red, yellow, green, not rotatable>
green

> <BIOSOLVEIT.TPSA>
52

$$$$
6HD6_FYH_2
foHydescor03222115263D 1   1.00000     0.00000     0
Hydescorer 1.1.0 fol007
 47 49  0  0  0  0            999 V2000
   -2.5286    8.0543   25.7262 O   0  0  0  0  0  0  0  0  0  0  0  0
   -1.8880    6.9687   25.7816 C   0  0  0  0  0  0  0  0  0  0  0  0
   -1.7932    6.1380   24.6121 N   0  0  0  0  0  0  0  0  0  0  0  0
   -1.8078    6.6475   23.2671 C   0  0  0  0  0  0  0  0  0  0  0  0
   -1.8722    5.7606   22.1971 C   0  0  0  0  0  0  0  0  0  0  0  0
   -1.8869    6.2443   20.8924 C   0  0  0  0  0  0  0  0  0  0  0  0
   -1.8361    7.6175   20.6769 C   0  0  0  0  0  0  0  0  0  0  0  0
   -1.8490    8.0992   19.4165 O   0  0  0  0  0  0  0  0  0  0  0  0
   -2.9419    8.7831   18.8069 C   0  0  0  0  0  0  0  0  0  0  0  0
   -3.2452    9.9287   19.5204 F   0  0  0  0  0  0  0  0  0  0  0  0
   -4.0461    7.9531   18.8070 F   0  0  0  0  0  0  0  0  0  0  0  0
   -2.6301    9.1100   17.4994 F   0  0  0  0  0  0  0  0  0  0  0  0
   -1.7711    8.5120   21.7410 C   0  0  0  0  0  0  0  0  0  0  0  0
   -1.7571    8.0197   23.0419 C   0  0  0  0  0  0  0  0  0  0  0  0
   -1.2987    6.5519   27.0390 C   0  0  0  0  0  0  0  0  0  0  0  0
   -1.2718    7.4315   28.1163 C   0  0  0  0  0  0  0  0  0  0  0  0
   -0.7022    7.0141   29.3150 C   0  0  0  0  0  0  0  0  0  0  0  0
   -0.1643    5.7379   29.4457 C   0  0  0  0  0  0  0  0  0  0  0  0
   -0.2022    4.8744   28.3554 C   0  0  0  0  0  0  0  0  0  0  0  0
    0.3791    3.4847   28.4861 C   0  0  0  0  0  0  0  0  0  0  0  0
   -0.3634    2.6610   29.4589 N   0  3  0  0  0  0  0  0  0  0  0  0
   -1.7673    3.0867   29.5588 C   0  0  0  0  0  0  0  0  0  0  0  0
   -2.5063    2.2287   30.5735 C   0  0  0  0  0  0  0  0  0  0  0  0
   -1.8711    2.3026   31.8423 O   0  0  0  0  0  0  0  0  0  0  0  0
   -0.5121    1.8920   31.7891 C   0  0  0  0  0  0  0  0  0  0  0  0
    0.2565    2.7424   30.7898 C   0  0  0  0  0  0  0  0  0  0  0  0
   -0.7668    5.2711   27.1475 C   0  0  0  0  0  0  0  0  0  0  0  0
   -1.7125    5.1496   24.7411 H   0  0  0  0  0  0  0  0  0  0  0  0
   -1.9078    4.7755   22.3655 H   0  0  0  0  0  0  0  0  0  0  0  0
   -1.9334    5.6122   20.1189 H   0  0  0  0  0  0  0  0  0  0  0  0
   -1.7348    9.4970   21.5725 H   0  0  0  0  0  0  0  0  0  0  0  0
   -1.7107    8.6518   23.8153 H   0  0  0  0  0  0  0  0  0  0  0  0
   -1.6563    8.3506   28.0303 H   0  0  0  0  0  0  0  0  0  0  0  0
   -0.6793    7.6407   30.0941 H   0  0  0  0  0  0  0  0  0  0  0  0
    0.2437    5.4454   30.3106 H   0  0  0  0  0  0  0  0  0  0  0  0
    1.3299    3.5600   28.7867 H   0  0  0  0  0  0  0  0  0  0  0  0
    0.3464    3.0364   27.5928 H   0  0  0  0  0  0  0  0  0  0  0  0
   -0.3398    1.7090   29.1540 H   0  0  0  0  0  0  0  0  0  0  0  0
   -2.2054    2.9919   28.6649 H   0  0  0  0  0  0  0  0  0  0  0  0
   -1.8024    4.0434   29.8474 H   0  0  0  0  0  0  0  0  0  0  0  0
   -2.5092    1.2786   30.2615 H   0  0  0  0  0  0  0  0  0  0  0  0
   -3.4479    2.5550   30.6570 H   0  0  0  0  0  0  0  0  0  0  0  0
   -0.4678    0.9330   31.5093 H   0  0  0  0  0  0  0  0  0  0  0  0
   -0.1008    1.9943   32.6948 H   0  0  0  0  0  0  0  0  0  0  0  0
    1.1992    2.4134   30.7343 H   0  0  0  0  0  0  0  0  0  0  0  0
    0.2531    3.6942   31.0966 H   0  0  0  0  0  0  0  0  0  0  0  0
   -0.7900    4.6446   26.3684 H   0  0  0  0  0  0  0  0  0  0  0  0
  1  2  2  0  0  0  0
  2  3  1  0  0  0  0
  3  4  1  0  0  0  0
  4  5  2  0  0  0  0
  5  6  1  0  0  0  0
  6  7  2  0  0  0  0
  7  8  1  0  0  0  0
  8  9  1  0  0  0  0
  9 10  1  0  0  0  0
  9 11  1  0  0  0  0
  9 12  1  0  0  0  0
  7 13  1  0  0  0  0
 13 14  2  0  0  0  0
  2 15  1  0  0  0  0
 15 16  2  0  0  0  0
 16 17  1  0  0  0  0
 17 18  2  0  0  0  0
 18 19  1  0  0  0  0
 19 20  1  0  0  0  0
 20 21  1  0  0  0  0
 21 22  1  0  0  0  0
 22 23  1  0  0  0  0
 23 24  1  0  0  0  0
 24 25  1  0  0  0  0
 25 26  1  0  0  0  0
 19 27  2  0  0  0  0
 14  4  1  0  0  0  0
 27 15  1  0  0  0  0
 26 21  1  0  0  0  0
  3 28  1  0  0  0  0
  5 29  1  0  0  0  0
  6 30  1  0  0  0  0
 13 31  1  0  0  0  0
 14 32  1  0  0  0  0
 16 33  1  0  0  0  0
 17 34  1  0  0  0  0
 18 35  1  0  0  0  0
 20 36  1  0  0  0  0
 20 37  1  0  0  0  0
 21 38  1  0  0  0  0
 22 39  1  0  0  0  0
 22 40  1  0  0  0  0
 23 41  1  0  0  0  0
 23 42  1  0  0  0  0
 25 43  1  0  0  0  0
 25 44  1  0  0  0  0
 26 45  1  0  0  0  0
 26 46  1  0  0  0  0
 27 47  1  0  0  0  0
M  CHG  1  21   1
M  END
> <BIOSOLVEIT.HYDE_ESTIMATED_AFFINITY_LOWER_BOUNDARY [nM]>
1995470.055122

> <BIOSOLVEIT.HYDE_ESTIMATED_AFFINITY_UPPER_BOUNDARY [nM]>
198261748.129020

> <BIOSOLVEIT.HYDE_LIGAND_EFFICIENCY range: ++, +, 0, -, -->
--

> <BIOSOLVEIT.HYDE_LIGAND_LIPOPHILIC_EFFICIENCY range: ++, +, 0, -, -->
--

> <BIOSOLVEIT.INTER_CLASH range: red, yellow, green>
green

> <BIOSOLVEIT.INTRA_CLASH range: red, yellow, green>
yellow

> <BIOSOLVEIT.LOGP>
2.2526

> <BIOSOLVEIT.MOLECULAR WEIGHT>
381.372

> <BIOSOLVEIT.MOLECULE_CHECKSUM>
LTkuNzExMzc7MC4zNTk2OA==

> <BIOSOLVEIT.TORSION_QUALITY range: red, yellow, green, not rotatable>
green

> <BIOSOLVEIT.TPSA>
52

$$$$
6HD6_FYH_3
foHydescor03222115263D 1   1.00000     0.00000     0
Hydescorer 1.1.0 fol007
 47 49  0  0  0  0            999 V2000
   -1.8770    5.2031   24.3743 O   0  0  0  0  0  0  0  0  0  0  0  0
   -1.8777    6.4602   24.2672 C   0  0  0  0  0  0  0  0  0  0  0  0
   -1.9304    7.2751   25.4505 N   0  0  0  0  0  0  0  0  0  0  0  0
   -1.3979    6.8877   26.6852 C   0  0  0  0  0  0  0  0  0  0  0  0
   -1.3154    7.8149   27.7193 C   0  0  0  0  0  0  0  0  0  0  0  0
   -0.7873    7.4388   28.9505 C   0  0  0  0  0  0  0  0  0  0  0  0
   -0.3464    6.1317   29.1293 C   0  0  0  0  0  0  0  0  0  0  0  0
    0.1893    5.7391   30.3666 O   0  0  0  0  0  0  0  0  0  0  0  0
   -0.5595    5.2061   31.4569 C   0  0  0  0  0  0  0  0  0  0  0  0
   -1.5138    6.1177   31.8705 F   0  0  0  0  0  0  0  0  0  0  0  0
    0.2991    4.9522   32.5087 F   0  0  0  0  0  0  0  0  0  0  0  0
   -1.1689    4.0219   31.0830 F   0  0  0  0  0  0  0  0  0  0  0  0
   -0.4245    5.1977   28.1005 C   0  0  0  0  0  0  0  0  0  0  0  0
   -0.9540    5.5824   26.8732 C   0  0  0  0  0  0  0  0  0  0  0  0
   -1.8755    7.0777   22.9184 C   0  0  0  0  0  0  0  0  0  0  0  0
   -2.1789    8.4277   22.7747 C   0  0  0  0  0  0  0  0  0  0  0  0
   -2.1720    8.9896   21.5019 C   0  0  0  0  0  0  0  0  0  0  0  0
   -1.8676    8.2221   20.3822 C   0  0  0  0  0  0  0  0  0  0  0  0
   -1.5667    6.8739   20.5494 C   0  0  0  0  0  0  0  0  0  0  0  0
   -1.2321    6.0254   19.3328 C   0  0  0  0  0  0  0  0  0  0  0  0
   -0.0584    6.5522   18.5886 N   0  3  0  0  0  0  0  0  0  0  0  0
   -0.5351    7.5572   17.6208 C   0  0  0  0  0  0  0  0  0  0  0  0
   -0.1199    7.1911   16.2018 C   0  0  0  0  0  0  0  0  0  0  0  0
    1.2814    6.9643   16.1500 O   0  0  0  0  0  0  0  0  0  0  0  0
    1.7298    5.9557   17.0518 C   0  0  0  0  0  0  0  0  0  0  0  0
    0.6254    5.4160   17.9504 C   0  0  0  0  0  0  0  0  0  0  0  0
   -1.5680    6.2917   21.8128 C   0  0  0  0  0  0  0  0  0  0  0  0
   -2.3729    8.1697   25.3876 H   0  0  0  0  0  0  0  0  0  0  0  0
   -1.6355    8.7516   27.5777 H   0  0  0  0  0  0  0  0  0  0  0  0
   -0.7255    8.1002   29.6980 H   0  0  0  0  0  0  0  0  0  0  0  0
   -0.1037    4.2612   28.2420 H   0  0  0  0  0  0  0  0  0  0  0  0
   -1.0157    4.9208   26.1258 H   0  0  0  0  0  0  0  0  0  0  0  0
   -2.3988    8.9861   23.5746 H   0  0  0  0  0  0  0  0  0  0  0  0
   -2.3889    9.9594   21.3904 H   0  0  0  0  0  0  0  0  0  0  0  0
   -1.8652    8.6333   19.4707 H   0  0  0  0  0  0  0  0  0  0  0  0
   -2.0229    6.0134   18.7208 H   0  0  0  0  0  0  0  0  0  0  0  0
   -1.0304    5.0938   19.6352 H   0  0  0  0  0  0  0  0  0  0  0  0
    0.5679    6.9904   19.2334 H   0  0  0  0  0  0  0  0  0  0  0  0
   -0.1454    8.4477   17.8558 H   0  0  0  0  0  0  0  0  0  0  0  0
   -1.5328    7.6074   17.6665 H   0  0  0  0  0  0  0  0  0  0  0  0
   -0.3574    7.9402   15.5834 H   0  0  0  0  0  0  0  0  0  0  0  0
   -0.6006    6.3608   15.9198 H   0  0  0  0  0  0  0  0  0  0  0  0
    2.4480    6.3433   17.6297 H   0  0  0  0  0  0  0  0  0  0  0  0
    2.1042    5.1970   16.5187 H   0  0  0  0  0  0  0  0  0  0  0  0
    1.0214    4.8238   18.6522 H   0  0  0  0  0  0  0  0  0  0  0  0
   -0.0286    4.8934   17.4035 H   0  0  0  0  0  0  0  0  0  0  0  0
   -1.3508    5.3219   21.9246 H   0  0  0  0  0  0  0  0  0  0  0  0
  1  2  2  0  0  0  0
  2  3  1  0  0  0  0
  3  4  1  0  0  0  0
  4  5  2  0  0  0  0
  5  6  1  0  0  0  0
  6  7  2  0  0  0  0
  7  8  1  0  0  0  0
  8  9  1  0  0  0  0
  9 10  1  0  0  0  0
  9 11  1  0  0  0  0
  9 12  1  0  0  0  0
  7 13  1  0  0  0  0
 13 14  2  0  0  0  0
  2 15  1  0  0  0  0
 15 16  2  0  0  0  0
 16 17  1  0  0  0  0
 17 18  2  0  0  0  0
 18 19  1  0  0  0  0
 19 20  1  0  0  0  0
 20 21  1  0  0  0  0
 21 22  1  0  0  0  0
 22 23  1  0  0  0  0
 23 24  1  0  0  0  0
 24 25  1  0  0  0  0
 25 26  1  0  0  0  0
 19 27  2  0  0  0  0
 14  4  1  0  0  0  0
 27 15  1  0  0  0  0
 26 21  1  0  0  0  0
  3 28  1  0  0  0  0
  5 29  1  0  0  0  0
  6 30  1  0  0  0  0
 13 31  1  0  0  0  0
 14 32  1  0  0  0  0
 16 33  1  0  0  0  0
 17 34  1  0  0  0  0
 18 35  1  0  0  0  0
 20 36  1  0  0  0  0
 20 37  1  0  0  0  0
 21 38  1  0  0  0  0
 22 39  1  0  0  0  0
 22 40  1  0  0  0  0
 23 41  1  0  0  0  0
 23 42  1  0  0  0  0
 25 43  1  0  0  0  0
 25 44  1  0  0  0  0
 26 45  1  0  0  0  0
 26 46  1  0  0  0  0
 27 47  1  0  0  0  0
M  CHG  1  21   1
M  END
> <BIOSOLVEIT.HYDE_ESTIMATED_AFFINITY_LOWER_BOUNDARY [nM]>
19256427.305859

> <BIOSOLVEIT.HYDE_ESTIMATED_AFFINITY_UPPER_BOUNDARY [nM]>
1913239905.845777

> <BIOSOLVEIT.HYDE_LIGAND_EFFICIENCY range: ++, +, 0, -, -->
--

> <BIOSOLVEIT.HYDE_LIGAND_LIPOPHILIC_EFFICIENCY range: ++, +, 0, -, -->
--

> <BIOSOLVEIT.INTER_CLASH range: red, yellow, green>
green

> <BIOSOLVEIT.INTRA_CLASH range: red, yellow, green>
red

> <BIOSOLVEIT.LOGP>
2.2526

> <BIOSOLVEIT.MOLECULAR WEIGHT>
381.372

> <BIOSOLVEIT.MOLECULE_CHECKSUM>
LTQuMDkxNjY7MC4xNTE1NDM=

> <BIOSOLVEIT.TORSION_QUALITY range: red, yellow, green, not rotatable>
green

> <BIOSOLVEIT.TPSA>
52

$$$$
6HD4_FYW_1
foHydescor03222115263D 1   1.00000     0.00000     0
Hydescorer 1.1.0 fol007
 50 53  0  0  0  0            999 V2000
   -4.1952   10.4513   24.6752 O   0  0  0  0  0  0  0  0  0  0  0  0
   -3.6480    9.3521   24.9582 C   0  0  0  0  0  0  0  0  0  0  0  0
   -3.5947    8.9405   26.3339 N   0  0  0  0  0  0  0  0  0  0  0  0
   -2.5542    8.1221   26.8975 C   0  0  0  0  0  0  0  0  0  0  0  0
   -1.3360    8.0069   26.2352 C   0  0  0  0  0  0  0  0  0  0  0  0
   -0.3238    7.2178   26.7729 C   0  0  0  0  0  0  0  0  0  0  0  0
   -0.5477    6.5509   27.9728 C   0  0  0  0  0  0  0  0  0  0  0  0
    0.4255    5.7820   28.5043 O   0  0  0  0  0  0  0  0  0  0  0  0
    0.4364    5.2705   29.8353 C   0  0  0  0  0  0  0  0  0  0  0  0
   -0.6684    4.4644   30.0454 F   0  0  0  0  0  0  0  0  0  0  0  0
    0.3908    6.3283   30.7224 F   0  0  0  0  0  0  0  0  0  0  0  0
    1.5958    4.5499   30.0598 F   0  0  0  0  0  0  0  0  0  0  0  0
   -1.7631    6.6599   28.6419 C   0  0  0  0  0  0  0  0  0  0  0  0
   -2.7692    7.4511   28.0974 C   0  0  0  0  0  0  0  0  0  0  0  0
   -3.1181    8.5033   23.8636 C   0  0  0  0  0  0  0  0  0  0  0  0
   -2.6879    7.2002   24.0920 C   0  0  0  0  0  0  0  0  0  0  0  0
   -2.2118    6.4452   23.0905 N   0  0  0  0  0  0  0  0  0  0  0  0
   -2.1319    6.9146   21.8363 C   0  0  0  0  0  0  0  0  0  0  0  0
   -1.6296    6.0994   20.8147 N   0  0  0  0  0  0  0  0  0  0  0  0
   -0.4049    6.3427   20.0557 C   0  0  0  0  0  0  0  0  0  0  0  0
   -0.8461    5.8988   18.6746 C   0  0  0  0  0  0  0  0  0  0  0  0
   -1.7289    4.6919   18.9099 C   0  0  1  0  0  0  0  0  0  0  0  0
   -0.9812    3.4832   18.8394 O   0  0  0  0  0  0  0  0  0  0  0  0
   -2.2419    4.8555   20.3322 C   0  0  0  0  0  0  0  0  0  0  0  0
   -2.5476    8.2114   21.5508 C   0  0  0  0  0  0  0  0  0  0  0  0
   -2.4759    8.7533   20.2075 C   0  0  0  0  0  0  0  0  0  0  0  0
   -3.1793    8.1656   19.1617 C   0  0  0  0  0  0  0  0  0  0  0  0
   -3.1015    8.6836   17.9276 N   0  0  0  0  0  0  0  0  0  0  0  0
   -2.3519    9.7669   17.6749 C   0  0  0  0  0  0  0  0  0  0  0  0
   -1.6646   10.3526   18.6664 N   0  0  0  0  0  0  0  0  0  0  0  0
   -1.7087    9.8762   19.9179 C   0  0  0  0  0  0  0  0  0  0  0  0
   -3.0453    9.0140   22.5719 C   0  0  0  0  0  0  0  0  0  0  0  0
   -4.3302    9.2431   26.9401 H   0  0  0  0  0  0  0  0  0  0  0  0
   -1.1878    8.4911   25.3729 H   0  0  0  0  0  0  0  0  0  0  0  0
    0.5542    7.1312   26.3022 H   0  0  0  0  0  0  0  0  0  0  0  0
   -1.9113    6.1751   29.5039 H   0  0  0  0  0  0  0  0  0  0  0  0
   -3.6471    7.5377   28.5683 H   0  0  0  0  0  0  0  0  0  0  0  0
   -2.7342    6.8208   25.0161 H   0  0  0  0  0  0  0  0  0  0  0  0
    0.3564    5.7905   20.3957 H   0  0  0  0  0  0  0  0  0  0  0  0
   -0.1478    7.3090   20.0687 H   0  0  0  0  0  0  0  0  0  0  0  0
   -0.0544    5.6509   18.1163 H   0  0  0  0  0  0  0  0  0  0  0  0
   -1.3601    6.6261   18.2198 H   0  0  0  0  0  0  0  0  0  0  0  0
   -2.4882    4.6767   18.2593 H   0  0  0  0  0  0  0  0  0  0  0  0
   -1.5743    2.7106   19.0662 H   0  0  0  0  0  0  0  0  0  0  0  0
   -1.9596    4.0816   20.8991 H   0  0  0  0  0  0  0  0  0  0  0  0
   -3.2392    4.9283   20.3401 H   0  0  0  0  0  0  0  0  0  0  0  0
   -3.7429    7.3569   19.3301 H   0  0  0  0  0  0  0  0  0  0  0  0
   -2.3055   10.1377   16.7473 H   0  0  0  0  0  0  0  0  0  0  0  0
   -1.1899   10.3281   20.6436 H   0  0  0  0  0  0  0  0  0  0  0  0
   -3.3474    9.9477   22.3795 H   0  0  0  0  0  0  0  0  0  0  0  0
  1  2  2  0  0  0  0
  2  3  1  0  0  0  0
  3  4  1  0  0  0  0
  4  5  2  0  0  0  0
  5  6  1  0  0  0  0
  6  7  2  0  0  0  0
  7  8  1  0  0  0  0
  8  9  1  0  0  0  0
  9 10  1  0  0  0  0
  9 11  1  0  0  0  0
  9 12  1  0  0  0  0
  7 13  1  0  0  0  0
 13 14  2  0  0  0  0
  2 15  1  0  0  0  0
 15 16  2  0  0  0  0
 16 17  1  0  0  0  0
 17 18  2  0  0  0  0
 18 19  1  0  0  0  0
 19 20  1  0  0  0  0
 20 21  1  0  0  0  0
 21 22  1  0  0  0  0
 22 23  1  0  0  0  0
 22 24  1  0  0  0  0
 18 25  1  0  0  0  0
 25 26  1  0  0  0  0
 26 27  2  0  0  0  0
 27 28  1  0  0  0  0
 28 29  2  0  0  0  0
 29 30  1  0  0  0  0
 30 31  2  0  0  0  0
 25 32  2  0  0  0  0
 14  4  1  0  0  0  0
 32 15  1  0  0  0  0
 24 19  1  0  0  0  0
 31 26  1  0  0  0  0
  3 33  1  0  0  0  0
  5 34  1  0  0  0  0
  6 35  1  0  0  0  0
 13 36  1  0  0  0  0
 14 37  1  0  0  0  0
 16 38  1  0  0  0  0
 20 39  1  0  0  0  0
 20 40  1  0  0  0  0
 21 41  1  0  0  0  0
 21 42  1  0  0  0  0
 22 43  1  0  0  0  0
 23 44  1  0  0  0  0
 24 45  1  0  0  0  0
 24 46  1  0  0  0  0
 27 47  1  0  0  0  0
 29 48  1  0  0  0  0
 31 49  1  0  0  0  0
 32 50  1  0  0  0  0
M  END
> <BIOSOLVEIT.HYDE_ESTIMATED_AFFINITY_LOWER_BOUNDARY [nM]>
651026959489.607178

> <BIOSOLVEIT.HYDE_ESTIMATED_AFFINITY_UPPER_BOUNDARY [nM]>
64683377601305.210938

> <BIOSOLVEIT.HYDE_LIGAND_EFFICIENCY range: ++, +, 0, -, -->
--

> <BIOSOLVEIT.HYDE_LIGAND_LIPOPHILIC_EFFICIENCY range: ++, +, 0, -, -->
--

> <BIOSOLVEIT.INTER_CLASH range: red, yellow, green>
yellow

> <BIOSOLVEIT.INTRA_CLASH range: red, yellow, green>
red

> <BIOSOLVEIT.LOGP>
3.2605

> <BIOSOLVEIT.MOLECULAR WEIGHT>
445.399

> <BIOSOLVEIT.MOLECULE_CHECKSUM>
MjEuNzY7MA==

> <BIOSOLVEIT.TORSION_QUALITY range: red, yellow, green, not rotatable>
yellow

> <BIOSOLVEIT.TPSA>
100.47

$$$$
6HD4_FYW_2
foHydescor03222115263D 1   1.00000     0.00000     0
Hydescorer 1.1.0 fol007
 50 53  0  0  0  0            999 V2000
   -4.1911   10.4598   24.6695 O   0  0  0  0  0  0  0  0  0  0  0  0
   -3.6464    9.3598   24.9543 C   0  0  0  0  0  0  0  0  0  0  0  0
   -3.5959    8.9494   26.3305 N   0  0  0  0  0  0  0  0  0  0  0  0
   -2.5578    8.1295   26.8965 C   0  0  0  0  0  0  0  0  0  0  0  0
   -1.3397    8.0094   26.2348 C   0  0  0  0  0  0  0  0  0  0  0  0
   -0.3298    7.2189   26.7747 C   0  0  0  0  0  0  0  0  0  0  0  0
   -0.5559    6.5555   27.9762 C   0  0  0  0  0  0  0  0  0  0  0  0
    0.4151    5.7852   28.5098 O   0  0  0  0  0  0  0  0  0  0  0  0
    0.2102    4.5272   29.1491 C   0  0  0  0  0  0  0  0  0  0  0  0
   -0.3686    3.6325   28.2666 F   0  0  0  0  0  0  0  0  0  0  0  0
   -0.6384    4.7039   30.2246 F   0  0  0  0  0  0  0  0  0  0  0  0
    1.4141    4.0244   29.6091 F   0  0  0  0  0  0  0  0  0  0  0  0
   -1.7712    6.6694   28.6446 C   0  0  0  0  0  0  0  0  0  0  0  0
   -2.7750    7.4620   28.0979 C   0  0  0  0  0  0  0  0  0  0  0  0
   -3.1165    8.5089   23.8613 C   0  0  0  0  0  0  0  0  0  0  0  0
   -2.6890    7.2053   24.0916 C   0  0  0  0  0  0  0  0  0  0  0  0
   -2.2129    6.4483   23.0916 N   0  0  0  0  0  0  0  0  0  0  0  0
   -2.1304    6.9164   21.8371 C   0  0  0  0  0  0  0  0  0  0  0  0
   -1.6283    6.0992   20.8170 N   0  0  0  0  0  0  0  0  0  0  0  0
   -0.4017    6.3391   20.0598 C   0  0  0  0  0  0  0  0  0  0  0  0
   -0.8415    5.8951   18.6784 C   0  0  0  0  0  0  0  0  0  0  0  0
   -1.7274    4.6904   18.9131 C   0  0  1  0  0  0  0  0  0  0  0  0
   -0.9824    3.4799   18.8449 O   0  0  0  0  0  0  0  0  0  0  0  0
   -2.2425    4.8563   20.3343 C   0  0  0  0  0  0  0  0  0  0  0  0
   -2.5435    8.2136   21.5496 C   0  0  0  0  0  0  0  0  0  0  0  0
   -2.4689    8.7540   20.2059 C   0  0  0  0  0  0  0  0  0  0  0  0
   -3.1694    8.1645   19.1591 C   0  0  0  0  0  0  0  0  0  0  0  0
   -3.0891    8.6812   17.9245 N   0  0  0  0  0  0  0  0  0  0  0  0
   -2.3396    9.7647   17.6724 C   0  0  0  0  0  0  0  0  0  0  0  0
   -1.6552   10.3521   18.6648 N   0  0  0  0  0  0  0  0  0  0  0  0
   -1.7018    9.8771   19.9168 C   0  0  0  0  0  0  0  0  0  0  0  0
   -3.0411    9.0181   22.5692 C   0  0  0  0  0  0  0  0  0  0  0  0
   -4.3316    9.2540   26.9354 H   0  0  0  0  0  0  0  0  0  0  0  0
   -1.1899    8.4912   25.3714 H   0  0  0  0  0  0  0  0  0  0  0  0
    0.5481    7.1287   26.3044 H   0  0  0  0  0  0  0  0  0  0  0  0
   -1.9210    6.1871   29.5077 H   0  0  0  0  0  0  0  0  0  0  0  0
   -3.6528    7.5521   28.5683 H   0  0  0  0  0  0  0  0  0  0  0  0
   -2.7372    6.8269   25.0161 H   0  0  0  0  0  0  0  0  0  0  0  0
    0.3578    5.7855   20.4016 H   0  0  0  0  0  0  0  0  0  0  0  0
   -0.1424    7.3048   20.0725 H   0  0  0  0  0  0  0  0  0  0  0  0
   -0.0494    5.6449   18.1216 H   0  0  0  0  0  0  0  0  0  0  0  0
   -1.3530    6.6232   18.2221 H   0  0  0  0  0  0  0  0  0  0  0  0
   -2.4857    4.6764   18.2612 H   0  0  0  0  0  0  0  0  0  0  0  0
   -1.5789    2.7084   19.0659 H   0  0  0  0  0  0  0  0  0  0  0  0
   -1.9630    4.0822   20.9023 H   0  0  0  0  0  0  0  0  0  0  0  0
   -3.2397    4.9313   20.3405 H   0  0  0  0  0  0  0  0  0  0  0  0
   -3.7328    7.3557   19.3271 H   0  0  0  0  0  0  0  0  0  0  0  0
   -2.2913   10.1345   16.7445 H   0  0  0  0  0  0  0  0  0  0  0  0
   -1.1851   10.3302   20.6432 H   0  0  0  0  0  0  0  0  0  0  0  0
   -3.3412    9.9522   22.3754 H   0  0  0  0  0  0  0  0  0  0  0  0
  1  2  2  0  0  0  0
  2  3  1  0  0  0  0
  3  4  1  0  0  0  0
  4  5  2  0  0  0  0
  5  6  1  0  0  0  0
  6  7  2  0  0  0  0
  7  8  1  0  0  0  0
  8  9  1  0  0  0  0
  9 10  1  0  0  0  0
  9 11  1  0  0  0  0
  9 12  1  0  0  0  0
  7 13  1  0  0  0  0
 13 14  2  0  0  0  0
  2 15  1  0  0  0  0
 15 16  2  0  0  0  0
 16 17  1  0  0  0  0
 17 18  2  0  0  0  0
 18 19  1  0  0  0  0
 19 20  1  0  0  0  0
 20 21  1  0  0  0  0
 21 22  1  0  0  0  0
 22 23  1  0  0  0  0
 22 24  1  0  0  0  0
 18 25  1  0  0  0  0
 25 26  1  0  0  0  0
 26 27  2  0  0  0  0
 27 28  1  0  0  0  0
 28 29  2  0  0  0  0
 29 30  1  0  0  0  0
 30 31  2  0  0  0  0
 25 32  2  0  0  0  0
 14  4  1  0  0  0  0
 32 15  1  0  0  0  0
 24 19  1  0  0  0  0
 31 26  1  0  0  0  0
  3 33  1  0  0  0  0
  5 34  1  0  0  0  0
  6 35  1  0  0  0  0
 13 36  1  0  0  0  0
 14 37  1  0  0  0  0
 16 38  1  0  0  0  0
 20 39  1  0  0  0  0
 20 40  1  0  0  0  0
 21 41  1  0  0  0  0
 21 42  1  0  0  0  0
 22 43  1  0  0  0  0
 23 44  1  0  0  0  0
 24 45  1  0  0  0  0
 24 46  1  0  0  0  0
 27 47  1  0  0  0  0
 29 48  1  0  0  0  0
 31 49  1  0  0  0  0
 32 50  1  0  0  0  0
M  END
> <BIOSOLVEIT.HYDE_ESTIMATED_AFFINITY_LOWER_BOUNDARY [nM]>
4278072888885.949219

> <BIOSOLVEIT.HYDE_ESTIMATED_AFFINITY_UPPER_BOUNDARY [nM]>
425051835479532.500000

> <BIOSOLVEIT.HYDE_LIGAND_EFFICIENCY range: ++, +, 0, -, -->
--

> <BIOSOLVEIT.HYDE_LIGAND_LIPOPHILIC_EFFICIENCY range: ++, +, 0, -, -->
--

> <BIOSOLVEIT.INTER_CLASH range: red, yellow, green>
yellow

> <BIOSOLVEIT.INTRA_CLASH range: red, yellow, green>
red

> <BIOSOLVEIT.LOGP>
3.2605

> <BIOSOLVEIT.MOLECULAR WEIGHT>
445.399

> <BIOSOLVEIT.MOLECULE_CHECKSUM>
MjYuNDI3Mjsw

> <BIOSOLVEIT.TORSION_QUALITY range: red, yellow, green, not rotatable>
yellow

> <BIOSOLVEIT.TPSA>
100.47

$$$$
6HD4_FYW_3
foHydescor03222115263D 1   1.00000     0.00000     0
Hydescorer 1.1.0 fol007
 50 53  0  0  0  0            999 V2000
   -4.3774    9.7529   25.2770 O   0  0  0  0  0  0  0  0  0  0  0  0
   -3.4466    9.0313   24.8281 C   0  0  0  0  0  0  0  0  0  0  0  0
   -3.0298    9.2101   23.4646 N   0  0  0  0  0  0  0  0  0  0  0  0
   -2.4894    8.1649   22.6364 C   0  0  0  0  0  0  0  0  0  0  0  0
   -3.1718    7.7764   21.4879 C   0  0  0  0  0  0  0  0  0  0  0  0
   -2.6568    6.7667   20.6806 C   0  0  0  0  0  0  0  0  0  0  0  0
   -1.4590    6.1565   21.0379 C   0  0  0  0  0  0  0  0  0  0  0  0
   -0.9493    5.1755   20.2640 O   0  0  0  0  0  0  0  0  0  0  0  0
   -1.4404    4.8016   18.9785 C   0  0  0  0  0  0  0  0  0  0  0  0
   -1.3676    5.8756   18.1093 F   0  0  0  0  0  0  0  0  0  0  0  0
   -2.7609    4.4145   19.0985 F   0  0  0  0  0  0  0  0  0  0  0  0
   -0.7082    3.7396   18.4789 F   0  0  0  0  0  0  0  0  0  0  0  0
   -0.7699    6.5382   22.1852 C   0  0  0  0  0  0  0  0  0  0  0  0
   -1.2919    7.5487   22.9859 C   0  0  0  0  0  0  0  0  0  0  0  0
   -2.8005    8.0778   25.7100 C   0  0  0  0  0  0  0  0  0  0  0  0
   -2.7107    6.7275   25.3869 C   0  0  0  0  0  0  0  0  0  0  0  0
   -2.1091    5.8588   26.2133 N   0  0  0  0  0  0  0  0  0  0  0  0
   -1.5737    6.2555   27.3776 C   0  0  0  0  0  0  0  0  0  0  0  0
   -0.9533    5.3221   28.2166 N   0  0  0  0  0  0  0  0  0  0  0  0
   -0.9049    5.3658   29.6801 C   0  0  0  0  0  0  0  0  0  0  0  0
   -0.9373    3.9092   30.0972 C   0  0  0  0  0  0  0  0  0  0  0  0
   -0.5010    3.1142   28.8806 C   0  0  1  0  0  0  0  0  0  0  0  0
   -1.5646    2.2712   28.5112 O   0  0  0  0  0  0  0  0  0  0  0  0
   -0.2081    4.1360   27.7991 C   0  0  0  0  0  0  0  0  0  0  0  0
   -1.6352    7.5943   27.7517 C   0  0  0  0  0  0  0  0  0  0  0  0
   -1.0680    8.0601   29.0024 C   0  0  0  0  0  0  0  0  0  0  0  0
    0.2901    8.3388   29.1110 C   0  0  0  0  0  0  0  0  0  0  0  0
    0.7942    8.7708   30.2758 N   0  0  0  0  0  0  0  0  0  0  0  0
    0.0108    8.9415   31.3511 C   0  0  0  0  0  0  0  0  0  0  0  0
   -1.3023    8.6805   31.2722 N   0  0  0  0  0  0  0  0  0  0  0  0
   -1.8571    8.2477   30.1319 C   0  0  0  0  0  0  0  0  0  0  0  0
   -2.2534    8.5147   26.9118 C   0  0  0  0  0  0  0  0  0  0  0  0
   -3.1214   10.1220   23.0646 H   0  0  0  0  0  0  0  0  0  0  0  0
   -4.0324    8.2228   21.2425 H   0  0  0  0  0  0  0  0  0  0  0  0
   -3.1421    6.4831   19.8535 H   0  0  0  0  0  0  0  0  0  0  0  0
    0.0902    6.0913   22.4310 H   0  0  0  0  0  0  0  0  0  0  0  0
   -0.8064    7.8323   23.8129 H   0  0  0  0  0  0  0  0  0  0  0  0
   -3.1003    6.3998   24.5262 H   0  0  0  0  0  0  0  0  0  0  0  0
   -1.6950    5.8572   30.0465 H   0  0  0  0  0  0  0  0  0  0  0  0
   -0.0637    5.8059   29.9941 H   0  0  0  0  0  0  0  0  0  0  0  0
   -1.8628    3.6466   30.3699 H   0  0  0  0  0  0  0  0  0  0  0  0
   -0.3082    3.7520   30.8585 H   0  0  0  0  0  0  0  0  0  0  0  0
    0.3170    2.5773   29.0870 H   0  0  0  0  0  0  0  0  0  0  0  0
   -2.1237    2.0683   29.3150 H   0  0  0  0  0  0  0  0  0  0  0  0
   -0.5274    3.8116   26.9086 H   0  0  0  0  0  0  0  0  0  0  0  0
    0.7715    4.3311   27.7511 H   0  0  0  0  0  0  0  0  0  0  0  0
    0.8904    8.2170   28.3206 H   0  0  0  0  0  0  0  0  0  0  0  0
    0.4058    9.2632   32.2116 H   0  0  0  0  0  0  0  0  0  0  0  0
   -2.8385    8.0597   30.0931 H   0  0  0  0  0  0  0  0  0  0  0  0
   -2.3039    9.4797   27.1692 H   0  0  0  0  0  0  0  0  0  0  0  0
  1  2  2  0  0  0  0
  2  3  1  0  0  0  0
  3  4  1  0  0  0  0
  4  5  2  0  0  0  0
  5  6  1  0  0  0  0
  6  7  2  0  0  0  0
  7  8  1  0  0  0  0
  8  9  1  0  0  0  0
  9 10  1  0  0  0  0
  9 11  1  0  0  0  0
  9 12  1  0  0  0  0
  7 13  1  0  0  0  0
 13 14  2  0  0  0  0
  2 15  1  0  0  0  0
 15 16  2  0  0  0  0
 16 17  1  0  0  0  0
 17 18  2  0  0  0  0
 18 19  1  0  0  0  0
 19 20  1  0  0  0  0
 20 21  1  0  0  0  0
 21 22  1  0  0  0  0
 22 23  1  0  0  0  0
 22 24  1  0  0  0  0
 18 25  1  0  0  0  0
 25 26  1  0  0  0  0
 26 27  2  0  0  0  0
 27 28  1  0  0  0  0
 28 29  2  0  0  0  0
 29 30  1  0  0  0  0
 30 31  2  0  0  0  0
 25 32  2  0  0  0  0
 14  4  1  0  0  0  0
 32 15  1  0  0  0  0
 24 19  1  0  0  0  0
 31 26  1  0  0  0  0
  3 33  1  0  0  0  0
  5 34  1  0  0  0  0
  6 35  1  0  0  0  0
 13 36  1  0  0  0  0
 14 37  1  0  0  0  0
 16 38  1  0  0  0  0
 20 39  1  0  0  0  0
 20 40  1  0  0  0  0
 21 41  1  0  0  0  0
 21 42  1  0  0  0  0
 22 43  1  0  0  0  0
 23 44  1  0  0  0  0
 24 45  1  0  0  0  0
 24 46  1  0  0  0  0
 27 47  1  0  0  0  0
 29 48  1  0  0  0  0
 31 49  1  0  0  0  0
 32 50  1  0  0  0  0
M  END
> <BIOSOLVEIT.HYDE_ESTIMATED_AFFINITY_LOWER_BOUNDARY [nM]>
11435976.097756

> <BIOSOLVEIT.HYDE_ESTIMATED_AFFINITY_UPPER_BOUNDARY [nM]>
1136231840.153864

> <BIOSOLVEIT.HYDE_LIGAND_EFFICIENCY range: ++, +, 0, -, -->
--

> <BIOSOLVEIT.HYDE_LIGAND_LIPOPHILIC_EFFICIENCY range: ++, +, 0, -, -->
--

> <BIOSOLVEIT.INTER_CLASH range: red, yellow, green>
yellow

> <BIOSOLVEIT.INTRA_CLASH range: red, yellow, green>
red

> <BIOSOLVEIT.LOGP>
3.2605

> <BIOSOLVEIT.MOLECULAR WEIGHT>
445.399

> <BIOSOLVEIT.MOLECULE_CHECKSUM>
LTUuMzgzMzk7MC4xNjgyMzE=

> <BIOSOLVEIT.TORSION_QUALITY range: red, yellow, green, not rotatable>
red

> <BIOSOLVEIT.TPSA>
100.47

$$$$
2QOH_P3Y_1
foHydescor03222115263D 1   1.00000     0.00000     0
Hydescorer 1.1.0 fol007
 48 51  0  0  0  0            999 V2000
   -0.9658   10.8935   18.6665 C   0  0  0  0  0  0  0  0  0  0  0  0
   -1.6730   10.0657   19.5833 O   0  0  0  0  0  0  0  0  0  0  0  0
   -1.6433    8.7155   19.5808 C   0  0  0  0  0  0  0  0  0  0  0  0
   -0.8566    8.0684   18.6337 C   0  0  0  0  0  0  0  0  0  0  0  0
   -0.8047    6.6785   18.6049 C   0  0  0  0  0  0  0  0  0  0  0  0
   -1.5400    5.9356   19.5227 C   0  0  0  0  0  0  0  0  0  0  0  0
   -2.3267    6.5824   20.4705 C   0  0  0  0  0  0  0  0  0  0  0  0
   -2.3789    7.9723   20.4991 C   0  0  0  0  0  0  0  0  0  0  0  0
   -3.1998    8.6471   21.4871 C   0  0  0  0  0  0  0  0  0  0  0  0
   -4.0894    9.6446   21.2170 C   0  0  0  0  0  0  0  0  0  0  0  0
   -4.6528   10.0066   22.4046 N   0  0  0  0  0  0  0  0  0  0  0  0
   -4.1221    9.2464   23.4194 C   0  0  0  0  0  0  0  0  0  0  0  0
   -4.3151    9.1904   24.7473 N   0  0  0  0  0  0  0  0  0  0  0  0
   -3.6510    8.3254   25.5309 C   0  0  0  0  0  0  0  0  0  0  0  0
   -2.7195    7.4333   25.0065 C   0  0  0  0  0  0  0  0  0  0  0  0
   -1.9835    6.4821   25.8164 C   0  0  0  0  0  0  0  0  0  0  0  0
   -1.7517    5.1826   25.3779 C   0  0  0  0  0  0  0  0  0  0  0  0
   -1.0685    4.3163   26.1411 N   0  0  0  0  0  0  0  0  0  0  0  0
   -0.5886    4.6702   27.3425 C   0  0  0  0  0  0  0  0  0  0  0  0
   -0.7913    5.9570   27.8297 C   0  0  0  0  0  0  0  0  0  0  0  0
   -0.2709    6.3677   29.1513 C   0  0  0  0  0  0  0  0  0  0  0  0
    0.8990    6.8352   29.2245 O   0  0  0  0  0  0  0  0  0  0  0  0
   -1.0671    6.2563   30.3485 N   0  0  0  0  0  0  0  0  0  0  0  0
   -2.2444    7.1147   30.5021 C   0  0  0  0  0  0  0  0  0  0  0  0
   -0.8000    5.1933   31.3239 C   0  0  0  0  0  0  0  0  0  0  0  0
   -1.4966    6.8746   27.0586 C   0  0  0  0  0  0  0  0  0  0  0  0
   -2.4939    7.4646   23.6366 C   0  0  0  0  0  0  0  0  0  0  0  0
   -3.2100    8.3800   22.8759 C   0  0  0  0  0  0  0  0  0  0  0  0
   -1.1497   11.8541   18.8745 H   0  0  0  0  0  0  0  0  0  0  0  0
    0.0153   10.7171   18.7465 H   0  0  0  0  0  0  0  0  0  0  0  0
   -1.2660   10.6908   17.7344 H   0  0  0  0  0  0  0  0  0  0  0  0
   -0.3282    8.6023   17.9736 H   0  0  0  0  0  0  0  0  0  0  0  0
   -0.2388    6.2133   17.9242 H   0  0  0  0  0  0  0  0  0  0  0  0
   -1.5031    4.9365   19.5013 H   0  0  0  0  0  0  0  0  0  0  0  0
   -2.8545    6.0484   21.1310 H   0  0  0  0  0  0  0  0  0  0  0  0
   -4.2902   10.0359   20.3190 H   0  0  0  0  0  0  0  0  0  0  0  0
   -5.3469   10.7172   22.5198 H   0  0  0  0  0  0  0  0  0  0  0  0
   -3.8298    8.3219   26.5148 H   0  0  0  0  0  0  0  0  0  0  0  0
   -2.0974    4.8915   24.4859 H   0  0  0  0  0  0  0  0  0  0  0  0
   -0.0820    4.0050   27.8911 H   0  0  0  0  0  0  0  0  0  0  0  0
   -2.6870    6.9199   31.3774 H   0  0  0  0  0  0  0  0  0  0  0  0
   -1.9631    8.0739   30.4770 H   0  0  0  0  0  0  0  0  0  0  0  0
   -2.8868    6.9360   29.7568 H   0  0  0  0  0  0  0  0  0  0  0  0
   -1.4444    5.2694   32.0847 H   0  0  0  0  0  0  0  0  0  0  0  0
   -0.9079    4.3020   30.8835 H   0  0  0  0  0  0  0  0  0  0  0  0
    0.1344    5.2839   31.6682 H   0  0  0  0  0  0  0  0  0  0  0  0
   -1.6516    7.8042   27.3929 H   0  0  0  0  0  0  0  0  0  0  0  0
   -1.8346    6.8456   23.2098 H   0  0  0  0  0  0  0  0  0  0  0  0
  1  2  1  0  0  0  0
  2  3  1  0  0  0  0
  3  4  2  0  0  0  0
  4  5  1  0  0  0  0
  5  6  2  0  0  0  0
  6  7  1  0  0  0  0
  7  8  2  0  0  0  0
  8  9  1  0  0  0  0
  9 10  2  0  0  0  0
 10 11  1  0  0  0  0
 11 12  1  0  0  0  0
 12 13  2  0  0  0  0
 13 14  1  0  0  0  0
 14 15  2  0  0  0  0
 15 16  1  0  0  0  0
 16 17  2  0  0  0  0
 17 18  1  0  0  0  0
 18 19  2  0  0  0  0
 19 20  1  0  0  0  0
 20 21  1  0  0  0  0
 21 22  2  0  0  0  0
 21 23  1  0  0  0  0
 23 24  1  0  0  0  0
 23 25  1  0  0  0  0
 20 26  2  0  0  0  0
 15 27  1  0  0  0  0
 27 28  2  0  0  0  0
  8  3  1  0  0  0  0
 28  9  1  0  0  0  0
 28 12  1  0  0  0  0
 26 16  1  0  0  0  0
  1 29  1  0  0  0  0
  1 30  1  0  0  0  0
  1 31  1  0  0  0  0
  4 32  1  0  0  0  0
  5 33  1  0  0  0  0
  6 34  1  0  0  0  0
  7 35  1  0  0  0  0
 10 36  1  0  0  0  0
 11 37  1  0  0  0  0
 14 38  1  0  0  0  0
 17 39  1  0  0  0  0
 19 40  1  0  0  0  0
 24 41  1  0  0  0  0
 24 42  1  0  0  0  0
 24 43  1  0  0  0  0
 25 44  1  0  0  0  0
 25 45  1  0  0  0  0
 25 46  1  0  0  0  0
 26 47  1  0  0  0  0
 27 48  1  0  0  0  0
M  END
> <BIOSOLVEIT.HYDE_ESTIMATED_AFFINITY_LOWER_BOUNDARY [nM]>
0.407166

> <BIOSOLVEIT.HYDE_ESTIMATED_AFFINITY_UPPER_BOUNDARY [nM]>
40.454340

> <BIOSOLVEIT.HYDE_LIGAND_EFFICIENCY range: ++, +, 0, -, -->
+

> <BIOSOLVEIT.HYDE_LIGAND_LIPOPHILIC_EFFICIENCY range: ++, +, 0, -, -->
0

> <BIOSOLVEIT.INTER_CLASH range: red, yellow, green>
green

> <BIOSOLVEIT.INTRA_CLASH range: red, yellow, green>
green

> <BIOSOLVEIT.LOGP>
4.0023

> <BIOSOLVEIT.MOLECULAR WEIGHT>
372.426

> <BIOSOLVEIT.MOLECULE_CHECKSUM>
LTQ3Ljg5OTU7MS43MTA3

> <BIOSOLVEIT.TORSION_QUALITY range: red, yellow, green, not rotatable>
yellow

> <BIOSOLVEIT.TPSA>
71.11

$$$$
2QOH_P3Y_2
foHydescor03222115263D 1   1.00000     0.00000     0
Hydescorer 1.1.0 fol007
 48 51  0  0  0  0            999 V2000
   -0.9678   10.8897   18.6686 C   0  0  0  0  0  0  0  0  0  0  0  0
   -1.6738   10.0627   19.5871 O   0  0  0  0  0  0  0  0  0  0  0  0
   -1.6440    8.7127   19.5857 C   0  0  0  0  0  0  0  0  0  0  0  0
   -0.8581    8.0648   18.6385 C   0  0  0  0  0  0  0  0  0  0  0  0
   -0.8061    6.6747   18.6108 C   0  0  0  0  0  0  0  0  0  0  0  0
   -1.5403    5.9327   19.5302 C   0  0  0  0  0  0  0  0  0  0  0  0
   -2.3263    6.5803   20.4781 C   0  0  0  0  0  0  0  0  0  0  0  0
   -2.3785    7.9703   20.5055 C   0  0  0  0  0  0  0  0  0  0  0  0
   -3.1987    8.6458   21.4936 C   0  0  0  0  0  0  0  0  0  0  0  0
   -4.0877    9.6437   21.2236 C   0  0  0  0  0  0  0  0  0  0  0  0
   -4.6504   10.0066   22.4113 N   0  0  0  0  0  0  0  0  0  0  0  0
   -4.1196    9.2465   23.4262 C   0  0  0  0  0  0  0  0  0  0  0  0
   -4.3119    9.1910   24.7542 N   0  0  0  0  0  0  0  0  0  0  0  0
   -3.6480    8.3259   25.5377 C   0  0  0  0  0  0  0  0  0  0  0  0
   -2.7172    7.4331   25.0132 C   0  0  0  0  0  0  0  0  0  0  0  0
   -1.9814    6.4818   25.8231 C   0  0  0  0  0  0  0  0  0  0  0  0
   -1.7520    5.1815   25.3857 C   0  0  0  0  0  0  0  0  0  0  0  0
   -1.0688    4.3151   26.1488 N   0  0  0  0  0  0  0  0  0  0  0  0
   -0.5867    4.6697   27.3492 C   0  0  0  0  0  0  0  0  0  0  0  0
   -0.7871    5.9572   27.8354 C   0  0  0  0  0  0  0  0  0  0  0  0
   -0.2643    6.3687   29.1558 C   0  0  0  0  0  0  0  0  0  0  0  0
    0.9018    6.8462   29.2250 O   0  0  0  0  0  0  0  0  0  0  0  0
   -1.0541    6.2468   30.3563 N   0  0  0  0  0  0  0  0  0  0  0  0
   -0.5306    5.4590   31.4751 C   0  0  0  0  0  0  0  0  0  0  0  0
   -2.2861    7.0269   30.5191 C   0  0  0  0  0  0  0  0  0  0  0  0
   -1.4923    6.8749   27.0642 C   0  0  0  0  0  0  0  0  0  0  0  0
   -2.4923    7.4637   23.6431 C   0  0  0  0  0  0  0  0  0  0  0  0
   -3.2082    8.3793   22.8826 C   0  0  0  0  0  0  0  0  0  0  0  0
   -1.1516   11.8506   18.8760 H   0  0  0  0  0  0  0  0  0  0  0  0
    0.0133   10.7135   18.7473 H   0  0  0  0  0  0  0  0  0  0  0  0
   -1.2693   10.6862   17.7370 H   0  0  0  0  0  0  0  0  0  0  0  0
   -0.3304    8.5981   17.9773 H   0  0  0  0  0  0  0  0  0  0  0  0
   -0.2408    6.2090   17.9300 H   0  0  0  0  0  0  0  0  0  0  0  0
   -1.5032    4.9336   19.5097 H   0  0  0  0  0  0  0  0  0  0  0  0
   -2.8535    6.0468   21.1395 H   0  0  0  0  0  0  0  0  0  0  0  0
   -4.2887   10.0348   20.3255 H   0  0  0  0  0  0  0  0  0  0  0  0
   -5.3439   10.7177   22.5267 H   0  0  0  0  0  0  0  0  0  0  0  0
   -3.8263    8.3229   26.5217 H   0  0  0  0  0  0  0  0  0  0  0  0
   -2.0995    4.8898   24.4944 H   0  0  0  0  0  0  0  0  0  0  0  0
   -0.0802    4.0044   27.8978 H   0  0  0  0  0  0  0  0  0  0  0  0
   -1.1892    5.4701   32.2275 H   0  0  0  0  0  0  0  0  0  0  0  0
   -0.3805    4.5162   31.1774 H   0  0  0  0  0  0  0  0  0  0  0  0
    0.3350    5.8530   31.7839 H   0  0  0  0  0  0  0  0  0  0  0  0
   -2.6991    6.8166   31.4052 H   0  0  0  0  0  0  0  0  0  0  0  0
   -2.0711    8.0025   30.4747 H   0  0  0  0  0  0  0  0  0  0  0  0
   -2.9276    6.7933   29.7885 H   0  0  0  0  0  0  0  0  0  0  0  0
   -1.6456    7.8051   27.3976 H   0  0  0  0  0  0  0  0  0  0  0  0
   -1.8336    6.8442   23.2163 H   0  0  0  0  0  0  0  0  0  0  0  0
  1  2  1  0  0  0  0
  2  3  1  0  0  0  0
  3  4  2  0  0  0  0
  4  5  1  0  0  0  0
  5  6  2  0  0  0  0
  6  7  1  0  0  0  0
  7  8  2  0  0  0  0
  8  9  1  0  0  0  0
  9 10  2  0  0  0  0
 10 11  1  0  0  0  0
 11 12  1  0  0  0  0
 12 13  2  0  0  0  0
 13 14  1  0  0  0  0
 14 15  2  0  0  0  0
 15 16  1  0  0  0  0
 16 17  2  0  0  0  0
 17 18  1  0  0  0  0
 18 19  2  0  0  0  0
 19 20  1  0  0  0  0
 20 21  1  0  0  0  0
 21 22  2  0  0  0  0
 21 23  1  0  0  0  0
 23 24  1  0  0  0  0
 23 25  1  0  0  0  0
 20 26  2  0  0  0  0
 15 27  1  0  0  0  0
 27 28  2  0  0  0  0
  8  3  1  0  0  0  0
 28  9  1  0  0  0  0
 28 12  1  0  0  0  0
 26 16  1  0  0  0  0
  1 29  1  0  0  0  0
  1 30  1  0  0  0  0
  1 31  1  0  0  0  0
  4 32  1  0  0  0  0
  5 33  1  0  0  0  0
  6 34  1  0  0  0  0
  7 35  1  0  0  0  0
 10 36  1  0  0  0  0
 11 37  1  0  0  0  0
 14 38  1  0  0  0  0
 17 39  1  0  0  0  0
 19 40  1  0  0  0  0
 24 41  1  0  0  0  0
 24 42  1  0  0  0  0
 24 43  1  0  0  0  0
 25 44  1  0  0  0  0
 25 45  1  0  0  0  0
 25 46  1  0  0  0  0
 26 47  1  0  0  0  0
 27 48  1  0  0  0  0
M  END
> <BIOSOLVEIT.HYDE_ESTIMATED_AFFINITY_LOWER_BOUNDARY [nM]>
0.445421

> <BIOSOLVEIT.HYDE_ESTIMATED_AFFINITY_UPPER_BOUNDARY [nM]>
44.255245

> <BIOSOLVEIT.HYDE_LIGAND_EFFICIENCY range: ++, +, 0, -, -->
+

> <BIOSOLVEIT.HYDE_LIGAND_LIPOPHILIC_EFFICIENCY range: ++, +, 0, -, -->
0

> <BIOSOLVEIT.INTER_CLASH range: red, yellow, green>
green

> <BIOSOLVEIT.INTRA_CLASH range: red, yellow, green>
green

> <BIOSOLVEIT.LOGP>
4.0023

> <BIOSOLVEIT.MOLECULAR WEIGHT>
372.426

> <BIOSOLVEIT.MOLECULE_CHECKSUM>
LTQ3LjY3Njk7MS43MDI3NQ==

> <BIOSOLVEIT.TORSION_QUALITY range: red, yellow, green, not rotatable>
yellow

> <BIOSOLVEIT.TPSA>
71.11

$$$$
2QOH_P3Y_3
foHydescor03222115263D 1   1.00000     0.00000     0
Hydescorer 1.1.0 fol007
 48 51  0  0  0  0            999 V2000
   -0.9815   10.8415   18.6761 C   0  0  0  0  0  0  0  0  0  0  0  0
   -1.6784   10.0169   19.6037 O   0  0  0  0  0  0  0  0  0  0  0  0
   -1.6401    8.6670   19.6121 C   0  0  0  0  0  0  0  0  0  0  0  0
   -0.8526    8.0172   18.6676 C   0  0  0  0  0  0  0  0  0  0  0  0
   -0.7919    6.6273   18.6500 C   0  0  0  0  0  0  0  0  0  0  0  0
   -1.5191    5.8874   19.5767 C   0  0  0  0  0  0  0  0  0  0  0  0
   -2.3065    6.5370   20.5219 C   0  0  0  0  0  0  0  0  0  0  0  0
   -2.3676    7.9267   20.5393 C   0  0  0  0  0  0  0  0  0  0  0  0
   -3.1894    8.6044   21.5247 C   0  0  0  0  0  0  0  0  0  0  0  0
   -4.0819    9.5981   21.2502 C   0  0  0  0  0  0  0  0  0  0  0  0
   -4.6451    9.9648   22.4365 N   0  0  0  0  0  0  0  0  0  0  0  0
   -4.1112    9.2113   23.4547 C   0  0  0  0  0  0  0  0  0  0  0  0
   -4.3027    9.1616   24.7831 N   0  0  0  0  0  0  0  0  0  0  0  0
   -3.6356    8.3025   25.5704 C   0  0  0  0  0  0  0  0  0  0  0  0
   -2.7022    7.4101   25.0497 C   0  0  0  0  0  0  0  0  0  0  0  0
   -1.9629    6.4651   25.8637 C   0  0  0  0  0  0  0  0  0  0  0  0
   -1.7320    5.1627   25.4337 C   0  0  0  0  0  0  0  0  0  0  0  0
   -1.0455    4.3022   26.2005 N   0  0  0  0  0  0  0  0  0  0  0  0
   -0.5615    4.6649   27.3977 C   0  0  0  0  0  0  0  0  0  0  0  0
   -0.7634    5.9550   27.8766 C   0  0  0  0  0  0  0  0  0  0  0  0
   -0.2386    6.3753   29.1934 C   0  0  0  0  0  0  0  0  0  0  0  0
    0.9750    6.7095   29.2846 O   0  0  0  0  0  0  0  0  0  0  0  0
   -1.0778    6.4213   30.3653 N   0  0  0  0  0  0  0  0  0  0  0  0
   -1.6726    5.1785   30.8633 C   0  0  0  0  0  0  0  0  0  0  0  0
   -1.2059    7.6601   31.1409 C   0  0  0  0  0  0  0  0  0  0  0  0
   -1.4719    6.8667   27.1014 C   0  0  0  0  0  0  0  0  0  0  0  0
   -2.4781    7.4350   23.6794 C   0  0  0  0  0  0  0  0  0  0  0  0
   -3.1974    8.3446   22.9148 C   0  0  0  0  0  0  0  0  0  0  0  0
   -1.1704   11.8027   18.8772 H   0  0  0  0  0  0  0  0  0  0  0  0
    0.0011   10.6719   18.7521 H   0  0  0  0  0  0  0  0  0  0  0  0
   -1.2856   10.6292   17.7474 H   0  0  0  0  0  0  0  0  0  0  0  0
   -0.3300    8.5489   18.0012 H   0  0  0  0  0  0  0  0  0  0  0  0
   -0.2255    6.1602   17.9710 H   0  0  0  0  0  0  0  0  0  0  0  0
   -1.4758    4.8884   19.5634 H   0  0  0  0  0  0  0  0  0  0  0  0
   -2.8285    6.0051   21.1888 H   0  0  0  0  0  0  0  0  0  0  0  0
   -4.2847    9.9843   20.3503 H   0  0  0  0  0  0  0  0  0  0  0  0
   -5.3408   10.6743   22.5488 H   0  0  0  0  0  0  0  0  0  0  0  0
   -3.8134    8.3036   26.5545 H   0  0  0  0  0  0  0  0  0  0  0  0
   -2.0808    4.8651   24.5450 H   0  0  0  0  0  0  0  0  0  0  0  0
   -0.0526    4.0038   27.9492 H   0  0  0  0  0  0  0  0  0  0  0  0
   -2.2229    5.3742   31.6749 H   0  0  0  0  0  0  0  0  0  0  0  0
   -2.2544    4.7799   30.1542 H   0  0  0  0  0  0  0  0  0  0  0  0
   -0.9466    4.5331   31.1005 H   0  0  0  0  0  0  0  0  0  0  0  0
   -1.8232    7.5078   31.9127 H   0  0  0  0  0  0  0  0  0  0  0  0
   -0.3068    7.9343   31.4821 H   0  0  0  0  0  0  0  0  0  0  0  0
   -1.5751    8.3827   30.5564 H   0  0  0  0  0  0  0  0  0  0  0  0
   -1.6263    7.7986   27.4296 H   0  0  0  0  0  0  0  0  0  0  0  0
   -1.8175    6.8155   23.2550 H   0  0  0  0  0  0  0  0  0  0  0  0
  1  2  1  0  0  0  0
  2  3  1  0  0  0  0
  3  4  2  0  0  0  0
  4  5  1  0  0  0  0
  5  6  2  0  0  0  0
  6  7  1  0  0  0  0
  7  8  2  0  0  0  0
  8  9  1  0  0  0  0
  9 10  2  0  0  0  0
 10 11  1  0  0  0  0
 11 12  1  0  0  0  0
 12 13  2  0  0  0  0
 13 14  1  0  0  0  0
 14 15  2  0  0  0  0
 15 16  1  0  0  0  0
 16 17  2  0  0  0  0
 17 18  1  0  0  0  0
 18 19  2  0  0  0  0
 19 20  1  0  0  0  0
 20 21  1  0  0  0  0
 21 22  2  0  0  0  0
 21 23  1  0  0  0  0
 23 24  1  0  0  0  0
 23 25  1  0  0  0  0
 20 26  2  0  0  0  0
 15 27  1  0  0  0  0
 27 28  2  0  0  0  0
  8  3  1  0  0  0  0
 28  9  1  0  0  0  0
 28 12  1  0  0  0  0
 26 16  1  0  0  0  0
  1 29  1  0  0  0  0
  1 30  1  0  0  0  0
  1 31  1  0  0  0  0
  4 32  1  0  0  0  0
  5 33  1  0  0  0  0
  6 34  1  0  0  0  0
  7 35  1  0  0  0  0
 10 36  1  0  0  0  0
 11 37  1  0  0  0  0
 14 38  1  0  0  0  0
 17 39  1  0  0  0  0
 19 40  1  0  0  0  0
 24 41  1  0  0  0  0
 24 42  1  0  0  0  0
 24 43  1  0  0  0  0
 25 44  1  0  0  0  0
 25 45  1  0  0  0  0
 25 46  1  0  0  0  0
 26 47  1  0  0  0  0
 27 48  1  0  0  0  0
M  END
> <BIOSOLVEIT.HYDE_ESTIMATED_AFFINITY_LOWER_BOUNDARY [nM]>
0.114308

> <BIOSOLVEIT.HYDE_ESTIMATED_AFFINITY_UPPER_BOUNDARY [nM]>
11.357201

> <BIOSOLVEIT.HYDE_LIGAND_EFFICIENCY range: ++, +, 0, -, -->
+

> <BIOSOLVEIT.HYDE_LIGAND_LIPOPHILIC_EFFICIENCY range: ++, +, 0, -, -->
0

> <BIOSOLVEIT.INTER_CLASH range: red, yellow, green>
green

> <BIOSOLVEIT.INTRA_CLASH range: red, yellow, green>
green

> <BIOSOLVEIT.LOGP>
4.0023

> <BIOSOLVEIT.MOLECULAR WEIGHT>
372.426

> <BIOSOLVEIT.MOLECULE_CHECKSUM>
LTUxLjA0ODY7MS44MjMxNg==

> <BIOSOLVEIT.TORSION_QUALITY range: red, yellow, green, not rotatable>
yellow

> <BIOSOLVEIT.TPSA>
71.11

$$$$
3MS9_MS9_1
foHydescor03222115263D 1   1.00000     0.00000     0
Hydescorer 1.1.0 fol007
 20 20  0  0  0  0            999 V2000
    2.8709    3.8273   16.9257 C   0  0  0  0  0  0  0  0  0  0  0  0
    1.8724    4.6177   17.5589 O   0  0  0  0  0  0  0  0  0  0  0  0
    1.3976    5.8145   17.0125 C   0  0  0  0  0  0  0  0  0  0  0  0
    1.8588    6.2354   15.9156 O   0  0  0  0  0  0  0  0  0  0  0  0
    0.3337    6.5459   17.6731 C   0  0  0  0  0  0  0  0  0  0  0  0
    0.3264    6.5998   19.0634 C   0  0  0  0  0  0  0  0  0  0  0  0
   -0.6801    7.2935   19.7275 C   0  0  0  0  0  0  0  0  0  0  0  0
   -1.6742    7.9291   18.9903 C   0  0  0  0  0  0  0  0  0  0  0  0
   -2.9648    8.8180   19.8351 Cl  0  0  0  0  0  0  0  0  0  0  0  0
   -1.6730    7.8791   17.6001 C   0  0  0  0  0  0  0  0  0  0  0  0
   -0.6637    7.1840   16.9415 C   0  0  0  0  0  0  0  0  0  0  0  0
   -0.6787    7.1447   15.5418 N   0  0  0  0  0  0  0  0  0  0  0  0
    3.0605    3.0197   17.4841 H   0  0  0  0  0  0  0  0  0  0  0  0
    2.5469    3.5405   16.0242 H   0  0  0  0  0  0  0  0  0  0  0  0
    3.7073    4.3659   16.8236 H   0  0  0  0  0  0  0  0  0  0  0  0
    1.0447    6.1398   19.5854 H   0  0  0  0  0  0  0  0  0  0  0  0
   -0.6890    7.3350   20.7266 H   0  0  0  0  0  0  0  0  0  0  0  0
   -2.3917    8.3390   17.0784 H   0  0  0  0  0  0  0  0  0  0  0  0
    0.1250    6.8218   15.0420 H   0  0  0  0  0  0  0  0  0  0  0  0
   -1.4932    7.4394   15.0420 H   0  0  0  0  0  0  0  0  0  0  0  0
  1  2  1  0  0  0  0
  2  3  1  0  0  0  0
  3  4  2  0  0  0  0
  3  5  1  0  0  0  0
  5  6  2  0  0  0  0
  6  7  1  0  0  0  0
  7  8  2  0  0  0  0
  8  9  1  0  0  0  0
  8 10  1  0  0  0  0
 10 11  2  0  0  0  0
 11 12  1  0  0  0  0
 11  5  1  0  0  0  0
  1 13  1  0  0  0  0
  1 14  1  0  0  0  0
  1 15  1  0  0  0  0
  6 16  1  0  0  0  0
  7 17  1  0  0  0  0
 10 18  1  0  0  0  0
 12 19  1  0  0  0  0
 12 20  1  0  0  0  0
M  END
> <BIOSOLVEIT.HYDE_ESTIMATED_AFFINITY_LOWER_BOUNDARY [nM]>
1321112.512026

> <BIOSOLVEIT.HYDE_ESTIMATED_AFFINITY_UPPER_BOUNDARY [nM]>
131260339.105087

> <BIOSOLVEIT.HYDE_LIGAND_EFFICIENCY range: ++, +, 0, -, -->
-

> <BIOSOLVEIT.HYDE_LIGAND_LIPOPHILIC_EFFICIENCY range: ++, +, 0, -, -->
--

> <BIOSOLVEIT.INTER_CLASH range: red, yellow, green>
green

> <BIOSOLVEIT.INTRA_CLASH range: red, yellow, green>
green

> <BIOSOLVEIT.LOGP>
1.7088

> <BIOSOLVEIT.MOLECULAR WEIGHT>
185.609

> <BIOSOLVEIT.MOLECULE_CHECKSUM>
LTEwLjczMzc7MC44OTQ0NzU=

> <BIOSOLVEIT.TORSION_QUALITY range: red, yellow, green, not rotatable>
green

> <BIOSOLVEIT.TPSA>
52.32

$$$$
3MS9_MS9_2
foHydescor03222115263D 1   1.00000     0.00000     0
Hydescorer 1.1.0 fol007
 20 20  0  0  0  0            999 V2000
   -2.5438    7.9616   27.2545 C   0  0  0  0  0  0  0  0  0  0  0  0
   -2.4544    7.8291   25.8413 O   0  0  0  0  0  0  0  0  0  0  0  0
   -3.3083    8.5053   24.9638 C   0  0  0  0  0  0  0  0  0  0  0  0
   -4.2079    9.2656   25.4175 O   0  0  0  0  0  0  0  0  0  0  0  0
   -3.1270    8.3817   23.5303 C   0  0  0  0  0  0  0  0  0  0  0  0
   -2.3496    7.3346   23.0453 C   0  0  0  0  0  0  0  0  0  0  0  0
   -2.1564    7.1880   21.6755 C   0  0  0  0  0  0  0  0  0  0  0  0
   -2.7455    8.0952   20.8004 C   0  0  0  0  0  0  0  0  0  0  0  0
   -2.5013    7.9125   19.0464 Cl  0  0  0  0  0  0  0  0  0  0  0  0
   -3.5237    9.1445   21.2785 C   0  0  0  0  0  0  0  0  0  0  0  0
   -3.7136    9.2858   22.6495 C   0  0  0  0  0  0  0  0  0  0  0  0
   -4.5001   10.3478   23.1124 N   0  0  0  0  0  0  0  0  0  0  0  0
   -1.8428    7.3948   27.6875 H   0  0  0  0  0  0  0  0  0  0  0  0
   -2.4030    8.9184   27.5092 H   0  0  0  0  0  0  0  0  0  0  0  0
   -3.4483    7.6649   27.5606 H   0  0  0  0  0  0  0  0  0  0  0  0
   -1.9298    6.6872   23.6815 H   0  0  0  0  0  0  0  0  0  0  0  0
   -1.5988    6.4367   21.3226 H   0  0  0  0  0  0  0  0  0  0  0  0
   -3.9431    9.7918   20.6420 H   0  0  0  0  0  0  0  0  0  0  0  0
   -4.2709   10.8016   23.9736 H   0  0  0  0  0  0  0  0  0  0  0  0
   -5.2912   10.6525   22.5818 H   0  0  0  0  0  0  0  0  0  0  0  0
  1  2  1  0  0  0  0
  2  3  1  0  0  0  0
  3  4  2  0  0  0  0
  3  5  1  0  0  0  0
  5  6  2  0  0  0  0
  6  7  1  0  0  0  0
  7  8  2  0  0  0  0
  8  9  1  0  0  0  0
  8 10  1  0  0  0  0
 10 11  2  0  0  0  0
 11 12  1  0  0  0  0
 11  5  1  0  0  0  0
  1 13  1  0  0  0  0
  1 14  1  0  0  0  0
  1 15  1  0  0  0  0
  6 16  1  0  0  0  0
  7 17  1  0  0  0  0
 10 18  1  0  0  0  0
 12 19  1  0  0  0  0
 12 20  1  0  0  0  0
M  END
> <BIOSOLVEIT.HYDE_ESTIMATED_AFFINITY_LOWER_BOUNDARY [nM]>
36643.801654

> <BIOSOLVEIT.HYDE_ESTIMATED_AFFINITY_UPPER_BOUNDARY [nM]>
3640778.349669

> <BIOSOLVEIT.HYDE_LIGAND_EFFICIENCY range: ++, +, 0, -, -->
0

> <BIOSOLVEIT.HYDE_LIGAND_LIPOPHILIC_EFFICIENCY range: ++, +, 0, -, -->
--

> <BIOSOLVEIT.INTER_CLASH range: red, yellow, green>
green

> <BIOSOLVEIT.INTRA_CLASH range: red, yellow, green>
green

> <BIOSOLVEIT.LOGP>
1.7088

> <BIOSOLVEIT.MOLECULAR WEIGHT>
185.609

> <BIOSOLVEIT.MOLECULE_CHECKSUM>
LTE5LjYyMDc7MS42MzUwNg==

> <BIOSOLVEIT.TORSION_QUALITY range: red, yellow, green, not rotatable>
green

> <BIOSOLVEIT.TPSA>
52.32

$$$$
3MS9_MS9_3
foHydescor03222115263D 1   1.00000     0.00000     0
Hydescorer 1.1.0 fol007
 20 20  0  0  0  0            999 V2000
    3.1964    5.2012   15.5451 C   0  0  0  0  0  0  0  0  0  0  0  0
    2.1385    6.0292   16.0122 O   0  0  0  0  0  0  0  0  0  0  0  0
    1.3337    5.6832   17.1024 C   0  0  0  0  0  0  0  0  0  0  0  0
    1.5023    4.5771   17.6868 O   0  0  0  0  0  0  0  0  0  0  0  0
    0.3427    6.6165   17.6023 C   0  0  0  0  0  0  0  0  0  0  0  0
    0.1804    6.7416   18.9785 C   0  0  0  0  0  0  0  0  0  0  0  0
   -0.7613    7.6283   19.4904 C   0  0  0  0  0  0  0  0  0  0  0  0
   -1.5353    8.3845   18.6158 C   0  0  0  0  0  0  0  0  0  0  0  0
   -2.7423    9.5207   19.2651 Cl  0  0  0  0  0  0  0  0  0  0  0  0
   -1.3784    8.2643   17.2387 C   0  0  0  0  0  0  0  0  0  0  0  0
   -0.4347    7.3760   16.7328 C   0  0  0  0  0  0  0  0  0  0  0  0
   -0.2905    7.2686   15.3442 N   0  0  0  0  0  0  0  0  0  0  0  0
    3.6391    5.6364   14.7611 H   0  0  0  0  0  0  0  0  0  0  0  0
    3.8661    5.0716   16.2764 H   0  0  0  0  0  0  0  0  0  0  0  0
    2.8280    4.3134   15.2693 H   0  0  0  0  0  0  0  0  0  0  0  0
    0.7409    6.1940   19.5998 H   0  0  0  0  0  0  0  0  0  0  0  0
   -0.8810    7.7215   20.4788 H   0  0  0  0  0  0  0  0  0  0  0  0
   -1.9392    8.8118   16.6176 H   0  0  0  0  0  0  0  0  0  0  0  0
   -0.3399    6.3720   14.9042 H   0  0  0  0  0  0  0  0  0  0  0  0
   -0.1380    8.0885   14.7924 H   0  0  0  0  0  0  0  0  0  0  0  0
  1  2  1  0  0  0  0
  2  3  1  0  0  0  0
  3  4  2  0  0  0  0
  3  5  1  0  0  0  0
  5  6  2  0  0  0  0
  6  7  1  0  0  0  0
  7  8  2  0  0  0  0
  8  9  1  0  0  0  0
  8 10  1  0  0  0  0
 10 11  2  0  0  0  0
 11 12  1  0  0  0  0
 11  5  1  0  0  0  0
  1 13  1  0  0  0  0
  1 14  1  0  0  0  0
  1 15  1  0  0  0  0
  6 16  1  0  0  0  0
  7 17  1  0  0  0  0
 10 18  1  0  0  0  0
 12 19  1  0  0  0  0
 12 20  1  0  0  0  0
M  END
> <BIOSOLVEIT.HYDE_ESTIMATED_AFFINITY_LOWER_BOUNDARY [nM]>
1710477.334888

> <BIOSOLVEIT.HYDE_ESTIMATED_AFFINITY_UPPER_BOUNDARY [nM]>
169946036.363465

> <BIOSOLVEIT.HYDE_LIGAND_EFFICIENCY range: ++, +, 0, -, -->
-

> <BIOSOLVEIT.HYDE_LIGAND_LIPOPHILIC_EFFICIENCY range: ++, +, 0, -, -->
--

> <BIOSOLVEIT.INTER_CLASH range: red, yellow, green>
green

> <BIOSOLVEIT.INTRA_CLASH range: red, yellow, green>
green

> <BIOSOLVEIT.LOGP>
1.7088

> <BIOSOLVEIT.MOLECULAR WEIGHT>
185.609

> <BIOSOLVEIT.MOLECULE_CHECKSUM>
LTEwLjA5MzQ7MC44NDExMTY=

> <BIOSOLVEIT.TORSION_QUALITY range: red, yellow, green, not rotatable>
green

> <BIOSOLVEIT.TPSA>
52.32

$$$$
3K5V_STJ_1
foHydescor03222115263D 1   1.00000     0.00000     0
Hydescorer 1.1.0 fol007
 40 42  0  0  0  0            999 V2000
   -1.2269    7.6872   16.4967 N   0  0  0  0  0  0  0  0  0  0  0  0
   -2.2039    7.6981   17.5412 C   0  0  0  0  0  0  0  0  0  0  0  0
   -3.4173    7.8537   17.2369 O   0  0  0  0  0  0  0  0  0  0  0  0
   -1.8302    7.5195   18.9306 C   0  0  0  0  0  0  0  0  0  0  0  0
   -0.6860    6.7964   19.2522 C   0  0  0  0  0  0  0  0  0  0  0  0
   -0.3432    6.6354   20.5909 C   0  0  0  0  0  0  0  0  0  0  0  0
   -1.1254    7.1847   21.6014 C   0  0  0  0  0  0  0  0  0  0  0  0
   -2.2653    7.9045   21.2569 C   0  0  0  0  0  0  0  0  0  0  0  0
   -3.0882    8.4821   22.3024 C   0  0  0  0  0  0  0  0  0  0  0  0
   -3.1264    7.8687   23.5502 C   0  0  0  0  0  0  0  0  0  0  0  0
   -3.9191    8.4309   24.5457 C   0  0  0  0  0  0  0  0  0  0  0  0
   -3.9656    7.8211   25.8059 N   0  0  0  0  0  0  0  0  0  0  0  0
   -2.8016    7.4366   26.5571 C   0  0  0  0  0  0  0  0  0  0  0  0
   -2.5766    7.9973   27.8105 C   0  0  0  0  0  0  0  0  0  0  0  0
   -1.4528    7.6311   28.5448 C   0  0  0  0  0  0  0  0  0  0  0  0
   -0.5649    6.7036   28.0099 C   0  0  0  0  0  0  0  0  0  0  0  0
    0.5291    6.3407   28.7117 O   0  0  0  0  0  0  0  0  0  0  0  0
    0.5888    5.2663   29.6473 C   0  0  0  0  0  0  0  0  0  0  0  0
    0.2798    4.0715   29.0218 F   0  0  0  0  0  0  0  0  0  0  0  0
   -0.3323    5.4944   30.6512 F   0  0  0  0  0  0  0  0  0  0  0  0
    1.8510    5.1923   30.2087 F   0  0  0  0  0  0  0  0  0  0  0  0
   -0.7816    6.1381   26.7569 C   0  0  0  0  0  0  0  0  0  0  0  0
   -1.9077    6.5096   26.0301 C   0  0  0  0  0  0  0  0  0  0  0  0
   -4.6192    9.5428   24.2740 N   0  0  0  0  0  0  0  0  0  0  0  0
   -4.5721   10.1233   23.0655 C   0  0  0  0  0  0  0  0  0  0  0  0
   -3.8124    9.5922   22.0957 N   0  0  0  0  0  0  0  0  0  0  0  0
   -2.6268    8.0777   19.9248 C   0  0  0  0  0  0  0  0  0  0  0  0
   -0.2529    7.6870   16.7231 H   0  0  0  0  0  0  0  0  0  0  0  0
   -1.5178    7.6798   15.5400 H   0  0  0  0  0  0  0  0  0  0  0  0
   -0.1184    6.3983   18.5317 H   0  0  0  0  0  0  0  0  0  0  0  0
    0.4778    6.1171   20.8303 H   0  0  0  0  0  0  0  0  0  0  0  0
   -0.8723    7.0642   22.5613 H   0  0  0  0  0  0  0  0  0  0  0  0
   -2.5950    7.0405   23.7281 H   0  0  0  0  0  0  0  0  0  0  0  0
   -4.8637    7.6422   26.2078 H   0  0  0  0  0  0  0  0  0  0  0  0
   -3.2224    8.6634   28.1835 H   0  0  0  0  0  0  0  0  0  0  0  0
   -1.2854    8.0302   29.4464 H   0  0  0  0  0  0  0  0  0  0  0  0
   -0.1352    5.4726   26.3836 H   0  0  0  0  0  0  0  0  0  0  0  0
   -2.0751    6.1105   25.1286 H   0  0  0  0  0  0  0  0  0  0  0  0
   -5.1032   10.9517   22.8876 H   0  0  0  0  0  0  0  0  0  0  0  0
   -3.4478    8.5961   19.6854 H   0  0  0  0  0  0  0  0  0  0  0  0
  1  2  1  0  0  0  0
  2  3  2  0  0  0  0
  2  4  1  0  0  0  0
  4  5  2  0  0  0  0
  5  6  1  0  0  0  0
  6  7  2  0  0  0  0
  7  8  1  0  0  0  0
  8  9  1  0  0  0  0
  9 10  2  0  0  0  0
 10 11  1  0  0  0  0
 11 12  1  0  0  0  0
 12 13  1  0  0  0  0
 13 14  2  0  0  0  0
 14 15  1  0  0  0  0
 15 16  2  0  0  0  0
 16 17  1  0  0  0  0
 17 18  1  0  0  0  0
 18 19  1  0  0  0  0
 18 20  1  0  0  0  0
 18 21  1  0  0  0  0
 16 22  1  0  0  0  0
 22 23  2  0  0  0  0
 11 24  2  0  0  0  0
 24 25  1  0  0  0  0
 25 26  2  0  0  0  0
  8 27  2  0  0  0  0
 27  4  1  0  0  0  0
 26  9  1  0  0  0  0
 23 13  1  0  0  0  0
  1 28  1  0  0  0  0
  1 29  1  0  0  0  0
  5 30  1  0  0  0  0
  6 31  1  0  0  0  0
  7 32  1  0  0  0  0
 10 33  1  0  0  0  0
 12 34  1  0  0  0  0
 14 35  1  0  0  0  0
 15 36  1  0  0  0  0
 22 37  1  0  0  0  0
 23 38  1  0  0  0  0
 25 39  1  0  0  0  0
 27 40  1  0  0  0  0
M  END
> <BIOSOLVEIT.HYDE_ESTIMATED_AFFINITY_LOWER_BOUNDARY [nM]>
650192.343622

> <BIOSOLVEIT.HYDE_ESTIMATED_AFFINITY_UPPER_BOUNDARY [nM]>
64600453.580187

> <BIOSOLVEIT.HYDE_LIGAND_EFFICIENCY range: ++, +, 0, -, -->
--

> <BIOSOLVEIT.HYDE_LIGAND_LIPOPHILIC_EFFICIENCY range: ++, +, 0, -, -->
--

> <BIOSOLVEIT.INTER_CLASH range: red, yellow, green>
green

> <BIOSOLVEIT.INTRA_CLASH range: red, yellow, green>
green

> <BIOSOLVEIT.LOGP>
3.8847

> <BIOSOLVEIT.MOLECULAR WEIGHT>
374.321

> <BIOSOLVEIT.MOLECULE_CHECKSUM>
LTEyLjQ5MTI7MC40NjI2Mzc=

> <BIOSOLVEIT.TORSION_QUALITY range: red, yellow, green, not rotatable>
yellow

> <BIOSOLVEIT.TPSA>
90.13

$$$$
3K5V_STJ_2
foHydescor03222115263D 1   1.00000     0.00000     0
Hydescorer 1.1.0 fol007
 40 42  0  0  0  0            999 V2000
   -1.2269    7.6870   16.4969 N   0  0  0  0  0  0  0  0  0  0  0  0
   -2.2037    7.6978   17.5415 C   0  0  0  0  0  0  0  0  0  0  0  0
   -3.4173    7.8530   17.2372 O   0  0  0  0  0  0  0  0  0  0  0  0
   -1.8299    7.5194   18.9308 C   0  0  0  0  0  0  0  0  0  0  0  0
   -0.6855    6.7969   19.2524 C   0  0  0  0  0  0  0  0  0  0  0  0
   -0.3424    6.6362   20.5911 C   0  0  0  0  0  0  0  0  0  0  0  0
   -1.1248    7.1854   21.6016 C   0  0  0  0  0  0  0  0  0  0  0  0
   -2.2649    7.9047   21.2571 C   0  0  0  0  0  0  0  0  0  0  0  0
   -3.0879    8.4822   22.3025 C   0  0  0  0  0  0  0  0  0  0  0  0
   -3.1262    7.8688   23.5504 C   0  0  0  0  0  0  0  0  0  0  0  0
   -3.9189    8.4308   24.5459 C   0  0  0  0  0  0  0  0  0  0  0  0
   -3.9656    7.8208   25.8060 N   0  0  0  0  0  0  0  0  0  0  0  0
   -2.8015    7.4364   26.5574 C   0  0  0  0  0  0  0  0  0  0  0  0
   -2.5765    7.9974   27.8106 C   0  0  0  0  0  0  0  0  0  0  0  0
   -1.4527    7.6313   28.5449 C   0  0  0  0  0  0  0  0  0  0  0  0
   -0.5648    6.7037   28.0103 C   0  0  0  0  0  0  0  0  0  0  0  0
    0.5292    6.3409   28.7121 O   0  0  0  0  0  0  0  0  0  0  0  0
    0.5890    5.2661   29.6474 C   0  0  0  0  0  0  0  0  0  0  0  0
    0.2805    4.0715   29.0213 F   0  0  0  0  0  0  0  0  0  0  0  0
   -0.3323    5.4936   30.6511 F   0  0  0  0  0  0  0  0  0  0  0  0
    1.8511    5.1925   30.2089 F   0  0  0  0  0  0  0  0  0  0  0  0
   -0.7814    6.1379   26.7574 C   0  0  0  0  0  0  0  0  0  0  0  0
   -1.9076    6.5094   26.0303 C   0  0  0  0  0  0  0  0  0  0  0  0
   -4.6190    9.5426   24.2742 N   0  0  0  0  0  0  0  0  0  0  0  0
   -4.5720   10.1233   23.0658 C   0  0  0  0  0  0  0  0  0  0  0  0
   -3.8121    9.5923   22.0959 N   0  0  0  0  0  0  0  0  0  0  0  0
   -2.6266    8.0777   19.9250 C   0  0  0  0  0  0  0  0  0  0  0  0
   -0.2528    7.6865   16.7232 H   0  0  0  0  0  0  0  0  0  0  0  0
   -1.5179    7.6801   15.5402 H   0  0  0  0  0  0  0  0  0  0  0  0
   -0.1177    6.3988   18.5319 H   0  0  0  0  0  0  0  0  0  0  0  0
    0.4789    6.1183   20.8303 H   0  0  0  0  0  0  0  0  0  0  0  0
   -0.8716    7.0650   22.5615 H   0  0  0  0  0  0  0  0  0  0  0  0
   -2.5946    7.0407   23.7283 H   0  0  0  0  0  0  0  0  0  0  0  0
   -4.8637    7.6417   26.2077 H   0  0  0  0  0  0  0  0  0  0  0  0
   -3.2223    8.6636   28.1835 H   0  0  0  0  0  0  0  0  0  0  0  0
   -1.2854    8.0303   29.4464 H   0  0  0  0  0  0  0  0  0  0  0  0
   -0.1353    5.4723   26.3842 H   0  0  0  0  0  0  0  0  0  0  0  0
   -2.0749    6.1102   25.1288 H   0  0  0  0  0  0  0  0  0  0  0  0
   -5.1031   10.9517   22.8879 H   0  0  0  0  0  0  0  0  0  0  0  0
   -3.4477    8.5959   19.6855 H   0  0  0  0  0  0  0  0  0  0  0  0
  1  2  1  0  0  0  0
  2  3  2  0  0  0  0
  2  4  1  0  0  0  0
  4  5  2  0  0  0  0
  5  6  1  0  0  0  0
  6  7  2  0  0  0  0
  7  8  1  0  0  0  0
  8  9  1  0  0  0  0
  9 10  2  0  0  0  0
 10 11  1  0  0  0  0
 11 12  1  0  0  0  0
 12 13  1  0  0  0  0
 13 14  2  0  0  0  0
 14 15  1  0  0  0  0
 15 16  2  0  0  0  0
 16 17  1  0  0  0  0
 17 18  1  0  0  0  0
 18 19  1  0  0  0  0
 18 20  1  0  0  0  0
 18 21  1  0  0  0  0
 16 22  1  0  0  0  0
 22 23  2  0  0  0  0
 11 24  2  0  0  0  0
 24 25  1  0  0  0  0
 25 26  2  0  0  0  0
  8 27  2  0  0  0  0
 27  4  1  0  0  0  0
 26  9  1  0  0  0  0
 23 13  1  0  0  0  0
  1 28  1  0  0  0  0
  1 29  1  0  0  0  0
  5 30  1  0  0  0  0
  6 31  1  0  0  0  0
  7 32  1  0  0  0  0
 10 33  1  0  0  0  0
 12 34  1  0  0  0  0
 14 35  1  0  0  0  0
 15 36  1  0  0  0  0
 22 37  1  0  0  0  0
 23 38  1  0  0  0  0
 25 39  1  0  0  0  0
 27 40  1  0  0  0  0
M  END
> <BIOSOLVEIT.HYDE_ESTIMATED_AFFINITY_LOWER_BOUNDARY [nM]>
652612.242177

> <BIOSOLVEIT.HYDE_ESTIMATED_AFFINITY_UPPER_BOUNDARY [nM]>
64840884.809192

> <BIOSOLVEIT.HYDE_LIGAND_EFFICIENCY range: ++, +, 0, -, -->
--

> <BIOSOLVEIT.HYDE_LIGAND_LIPOPHILIC_EFFICIENCY range: ++, +, 0, -, -->
--

> <BIOSOLVEIT.INTER_CLASH range: red, yellow, green>
green

> <BIOSOLVEIT.INTRA_CLASH range: red, yellow, green>
green

> <BIOSOLVEIT.LOGP>
3.8847

> <BIOSOLVEIT.MOLECULAR WEIGHT>
374.321

> <BIOSOLVEIT.MOLECULE_CHECKSUM>
LTEyLjQ4MjswLjQ2MjI5NQ==

> <BIOSOLVEIT.TORSION_QUALITY range: red, yellow, green, not rotatable>
yellow

> <BIOSOLVEIT.TPSA>
90.13

$$$$
3K5V_STJ_3
foHydescor03222115263D 1   1.00000     0.00000     0
Hydescorer 1.1.0 fol007
 40 42  0  0  0  0            999 V2000
   -1.1507    7.6601   16.2928 N   0  0  0  0  0  0  0  0  0  0  0  0
   -2.1006    7.7568   17.3576 C   0  0  0  0  0  0  0  0  0  0  0  0
   -3.3124    7.9592   17.0748 O   0  0  0  0  0  0  0  0  0  0  0  0
   -1.7024    7.6123   18.7442 C   0  0  0  0  0  0  0  0  0  0  0  0
   -0.4888    7.0083   19.0564 C   0  0  0  0  0  0  0  0  0  0  0  0
   -0.1233    6.8784   20.3924 C   0  0  0  0  0  0  0  0  0  0  0  0
   -0.9512    7.3418   21.4095 C   0  0  0  0  0  0  0  0  0  0  0  0
   -2.1604    7.9430   21.0745 C   0  0  0  0  0  0  0  0  0  0  0  0
   -3.0315    8.4303   22.1269 C   0  0  0  0  0  0  0  0  0  0  0  0
   -3.0678    7.7551   23.3424 C   0  0  0  0  0  0  0  0  0  0  0  0
   -3.9069    8.2307   24.3448 C   0  0  0  0  0  0  0  0  0  0  0  0
   -3.9519    7.5581   25.5727 N   0  0  0  0  0  0  0  0  0  0  0  0
   -2.8009    7.3134   26.3987 C   0  0  0  0  0  0  0  0  0  0  0  0
   -2.6548    8.0065   27.5962 C   0  0  0  0  0  0  0  0  0  0  0  0
   -1.5441    7.7762   28.4022 C   0  0  0  0  0  0  0  0  0  0  0  0
   -0.5898    6.8501   27.9946 C   0  0  0  0  0  0  0  0  0  0  0  0
    0.4922    6.6182   28.7669 O   0  0  0  0  0  0  0  0  0  0  0  0
    0.5641    5.6564   29.8172 C   0  0  0  0  0  0  0  0  0  0  0  0
    0.3308    4.3872   29.3183 F   0  0  0  0  0  0  0  0  0  0  0  0
   -0.4026    5.9489   30.7597 F   0  0  0  0  0  0  0  0  0  0  0  0
    1.8067    5.7041   30.4234 F   0  0  0  0  0  0  0  0  0  0  0  0
   -0.7273    6.1526   26.7982 C   0  0  0  0  0  0  0  0  0  0  0  0
   -1.8409    6.3888   25.9989 C   0  0  0  0  0  0  0  0  0  0  0  0
   -4.6520    9.3218   24.1107 N   0  0  0  0  0  0  0  0  0  0  0  0
   -4.6062    9.9627   22.9331 C   0  0  0  0  0  0  0  0  0  0  0  0
   -3.8020    9.5154   21.9570 N   0  0  0  0  0  0  0  0  0  0  0  0
   -2.5458    8.0833   19.7450 C   0  0  0  0  0  0  0  0  0  0  0  0
   -0.1724    7.7298   16.4877 H   0  0  0  0  0  0  0  0  0  0  0  0
   -1.4649    7.5227   15.3534 H   0  0  0  0  0  0  0  0  0  0  0  0
    0.1121    6.6724   18.3311 H   0  0  0  0  0  0  0  0  0  0  0  0
    0.7476    6.4453   20.6250 H   0  0  0  0  0  0  0  0  0  0  0  0
   -0.6814    7.2443   22.3675 H   0  0  0  0  0  0  0  0  0  0  0  0
   -2.5023    6.9442   23.4926 H   0  0  0  0  0  0  0  0  0  0  0  0
   -4.8392    7.2277   25.8945 H   0  0  0  0  0  0  0  0  0  0  0  0
   -3.3479    8.6702   27.8776 H   0  0  0  0  0  0  0  0  0  0  0  0
   -1.4334    8.2707   29.2643 H   0  0  0  0  0  0  0  0  0  0  0  0
   -0.0338    5.4896   26.5166 H   0  0  0  0  0  0  0  0  0  0  0  0
   -1.9516    5.8941   25.1370 H   0  0  0  0  0  0  0  0  0  0  0  0
   -5.1714   10.7739   22.7829 H   0  0  0  0  0  0  0  0  0  0  0  0
   -3.4165    8.5164   19.5123 H   0  0  0  0  0  0  0  0  0  0  0  0
  1  2  1  0  0  0  0
  2  3  2  0  0  0  0
  2  4  1  0  0  0  0
  4  5  2  0  0  0  0
  5  6  1  0  0  0  0
  6  7  2  0  0  0  0
  7  8  1  0  0  0  0
  8  9  1  0  0  0  0
  9 10  2  0  0  0  0
 10 11  1  0  0  0  0
 11 12  1  0  0  0  0
 12 13  1  0  0  0  0
 13 14  2  0  0  0  0
 14 15  1  0  0  0  0
 15 16  2  0  0  0  0
 16 17  1  0  0  0  0
 17 18  1  0  0  0  0
 18 19  1  0  0  0  0
 18 20  1  0  0  0  0
 18 21  1  0  0  0  0
 16 22  1  0  0  0  0
 22 23  2  0  0  0  0
 11 24  2  0  0  0  0
 24 25  1  0  0  0  0
 25 26  2  0  0  0  0
  8 27  2  0  0  0  0
 27  4  1  0  0  0  0
 26  9  1  0  0  0  0
 23 13  1  0  0  0  0
  1 28  1  0  0  0  0
  1 29  1  0  0  0  0
  5 30  1  0  0  0  0
  6 31  1  0  0  0  0
  7 32  1  0  0  0  0
 10 33  1  0  0  0  0
 12 34  1  0  0  0  0
 14 35  1  0  0  0  0
 15 36  1  0  0  0  0
 22 37  1  0  0  0  0
 23 38  1  0  0  0  0
 25 39  1  0  0  0  0
 27 40  1  0  0  0  0
M  END
> <BIOSOLVEIT.HYDE_ESTIMATED_AFFINITY_LOWER_BOUNDARY [nM]>
95338939.095815

> <BIOSOLVEIT.HYDE_ESTIMATED_AFFINITY_UPPER_BOUNDARY [nM]>
9472487287.588102

> <BIOSOLVEIT.HYDE_LIGAND_EFFICIENCY range: ++, +, 0, -, -->
--

> <BIOSOLVEIT.HYDE_LIGAND_LIPOPHILIC_EFFICIENCY range: ++, +, 0, -, -->
--

> <BIOSOLVEIT.INTER_CLASH range: red, yellow, green>
green

> <BIOSOLVEIT.INTRA_CLASH range: red, yellow, green>
green

> <BIOSOLVEIT.LOGP>
3.8847

> <BIOSOLVEIT.MOLECULAR WEIGHT>
374.321

> <BIOSOLVEIT.MOLECULE_CHECKSUM>
LTAuMTI2MzM0OzAuMDA0Njc5MDU=

> <BIOSOLVEIT.TORSION_QUALITY range: red, yellow, green, not rotatable>
yellow

> <BIOSOLVEIT.TPSA>
90.13

$$$$
3K5V_STI_1
foHydescor03222115263D 1   1.00000     0.00000     0
Hydescorer 1.1.0 fol007
 71 75  0  0  0  0            999 V2000
   -3.8480    9.7916   24.0086 C   0  0  0  0  0  0  0  0  0  0  0  0
   -3.1228    8.5785   24.5682 C   0  0  0  0  0  0  0  0  0  0  0  0
   -3.5996    7.9945   25.7371 C   0  0  0  0  0  0  0  0  0  0  0  0
   -2.9561    6.8830   26.2719 C   0  0  0  0  0  0  0  0  0  0  0  0
   -1.8373    6.3667   25.6267 C   0  0  0  0  0  0  0  0  0  0  0  0
   -1.1636    5.2168   26.1717 N   0  0  0  0  0  0  0  0  0  0  0  0
   -1.1029    4.8943   27.5706 C   0  0  0  0  0  0  0  0  0  0  0  0
   -1.0262    3.6835   27.9110 O   0  0  0  0  0  0  0  0  0  0  0  0
   -1.0846    5.9438   28.6174 C   0  0  0  0  0  0  0  0  0  0  0  0
   -0.5999    7.2101   28.3055 C   0  0  0  0  0  0  0  0  0  0  0  0
   -0.5776    8.2056   29.2771 C   0  0  0  0  0  0  0  0  0  0  0  0
   -1.0445    7.9149   30.5556 C   0  0  0  0  0  0  0  0  0  0  0  0
   -1.0253    8.9926   31.6276 C   0  0  0  0  0  0  0  0  0  0  0  0
   -2.3924    9.3238   32.1089 N   0  3  0  0  0  0  0  0  0  0  0  0
   -2.5192   10.7719   32.3412 C   0  0  0  0  0  0  0  0  0  0  0  0
   -3.9187   11.1514   32.8027 C   0  0  0  0  0  0  0  0  0  0  0  0
   -4.6706    9.9686   33.2531 N   0  3  0  0  0  0  0  0  0  0  0  0
   -5.8368   10.4438   34.0102 C   0  0  0  0  0  0  0  0  0  0  0  0
   -3.8213    9.1281   34.1114 C   0  0  0  0  0  0  0  0  0  0  0  0
   -2.6252    8.5743   33.3526 C   0  0  0  0  0  0  0  0  0  0  0  0
   -1.5297    6.6503   30.8720 C   0  0  0  0  0  0  0  0  0  0  0  0
   -1.5500    5.6582   29.8967 C   0  0  0  0  0  0  0  0  0  0  0  0
   -1.3544    6.9452   24.4573 C   0  0  0  0  0  0  0  0  0  0  0  0
   -2.0029    8.0566   23.9283 C   0  0  0  0  0  0  0  0  0  0  0  0
   -1.5288    8.6497   22.7519 N   0  0  0  0  0  0  0  0  0  0  0  0
   -1.7859    8.1337   21.4387 C   0  0  0  0  0  0  0  0  0  0  0  0
   -2.2435    6.8792   21.3136 N   0  0  0  0  0  0  0  0  0  0  0  0
   -2.5011    6.3446   20.1110 C   0  0  0  0  0  0  0  0  0  0  0  0
   -2.2910    7.1031   18.9642 C   0  0  0  0  0  0  0  0  0  0  0  0
   -1.8162    8.4028   19.1037 C   0  0  0  0  0  0  0  0  0  0  0  0
   -1.5938    9.2014   17.9116 C   0  0  0  0  0  0  0  0  0  0  0  0
   -1.9970   10.5324   17.8952 C   0  0  0  0  0  0  0  0  0  0  0  0
   -1.7814   11.2941   16.7521 C   0  0  0  0  0  0  0  0  0  0  0  0
   -1.1666   10.6964   15.6570 C   0  0  0  0  0  0  0  0  0  0  0  0
   -0.7868    9.4106   15.6968 N   0  3  0  0  0  0  0  0  0  0  0  0
   -0.9831    8.6548   16.7876 C   0  0  0  0  0  0  0  0  0  0  0  0
   -1.5792    8.8753   20.3383 N   0  0  0  0  0  0  0  0  0  0  0  0
   -3.3917   10.0964   23.1726 H   0  0  0  0  0  0  0  0  0  0  0  0
   -4.7952    9.5474   23.8011 H   0  0  0  0  0  0  0  0  0  0  0  0
   -3.8340   10.5290   24.6838 H   0  0  0  0  0  0  0  0  0  0  0  0
   -4.4048    8.3735   26.1930 H   0  0  0  0  0  0  0  0  0  0  0  0
   -3.2947    6.4594   27.1121 H   0  0  0  0  0  0  0  0  0  0  0  0
   -0.7059    4.5995   25.5319 H   0  0  0  0  0  0  0  0  0  0  0  0
   -0.2676    7.4048   27.3826 H   0  0  0  0  0  0  0  0  0  0  0  0
   -0.2306    9.1180   29.0598 H   0  0  0  0  0  0  0  0  0  0  0  0
   -0.6078    9.8183   31.2479 H   0  0  0  0  0  0  0  0  0  0  0  0
   -0.4803    8.6690   32.4010 H   0  0  0  0  0  0  0  0  0  0  0  0
   -3.0618    9.0399   31.4223 H   0  0  0  0  0  0  0  0  0  0  0  0
   -2.3175   11.2551   31.4891 H   0  0  0  0  0  0  0  0  0  0  0  0
   -1.8618   11.0457   33.0432 H   0  0  0  0  0  0  0  0  0  0  0  0
   -4.4080   11.5789   32.0425 H   0  0  0  0  0  0  0  0  0  0  0  0
   -3.8474   11.8004   33.5601 H   0  0  0  0  0  0  0  0  0  0  0  0
   -4.9755    9.4409   32.4602 H   0  0  0  0  0  0  0  0  0  0  0  0
   -6.3686    9.6598   34.3301 H   0  0  0  0  0  0  0  0  0  0  0  0
   -5.5281   10.9801   34.7958 H   0  0  0  0  0  0  0  0  0  0  0  0
   -6.4072   11.0150   33.4200 H   0  0  0  0  0  0  0  0  0  0  0  0
   -4.3663    8.3649   34.4584 H   0  0  0  0  0  0  0  0  0  0  0  0
   -3.4916    9.6782   34.8788 H   0  0  0  0  0  0  0  0  0  0  0  0
   -2.7967    7.6150   33.1283 H   0  0  0  0  0  0  0  0  0  0  0  0
   -1.8122    8.6413   33.9310 H   0  0  0  0  0  0  0  0  0  0  0  0
   -1.8619    6.4553   31.7949 H   0  0  0  0  0  0  0  0  0  0  0  0
   -1.8969    4.7458   30.1140 H   0  0  0  0  0  0  0  0  0  0  0  0
   -0.5491    6.5660   24.0015 H   0  0  0  0  0  0  0  0  0  0  0  0
   -0.9792    9.4813   22.8320 H   0  0  0  0  0  0  0  0  0  0  0  0
   -2.8417    5.4071   20.0392 H   0  0  0  0  0  0  0  0  0  0  0  0
   -2.4774    6.7220   18.0586 H   0  0  0  0  0  0  0  0  0  0  0  0
   -2.4370   10.9372   18.6969 H   0  0  0  0  0  0  0  0  0  0  0  0
   -2.0630   12.2530   16.7180 H   0  0  0  0  0  0  0  0  0  0  0  0
   -1.0054   11.2328   14.8285 H   0  0  0  0  0  0  0  0  0  0  0  0
   -0.6905    7.6986   16.7927 H   0  0  0  0  0  0  0  0  0  0  0  0
   -0.3471    9.0061   14.8949 H   0  0  0  0  0  0  0  0  0  0  0  0
  1  2  1  0  0  0  0
  2  3  2  0  0  0  0
  3  4  1  0  0  0  0
  4  5  2  0  0  0  0
  5  6  1  0  0  0  0
  6  7  1  0  0  0  0
  7  8  2  0  0  0  0
  7  9  1  0  0  0  0
  9 10  2  0  0  0  0
 10 11  1  0  0  0  0
 11 12  2  0  0  0  0
 12 13  1  0  0  0  0
 13 14  1  0  0  0  0
 14 15  1  0  0  0  0
 15 16  1  0  0  0  0
 16 17  1  0  0  0  0
 17 18  1  0  0  0  0
 17 19  1  0  0  0  0
 19 20  1  0  0  0  0
 12 21  1  0  0  0  0
 21 22  2  0  0  0  0
  5 23  1  0  0  0  0
 23 24  2  0  0  0  0
 24 25  1  0  0  0  0
 25 26  1  0  0  0  0
 26 27  2  0  0  0  0
 27 28  1  0  0  0  0
 28 29  2  0  0  0  0
 29 30  1  0  0  0  0
 30 31  1  0  0  0  0
 31 32  2  0  0  0  0
 32 33  1  0  0  0  0
 33 34  2  0  0  0  0
 34 35  1  0  0  0  0
 35 36  2  0  0  0  0
 30 37  2  0  0  0  0
 24  2  1  0  0  0  0
 37 26  1  0  0  0  0
 22  9  1  0  0  0  0
 36 31  1  0  0  0  0
 20 14  1  0  0  0  0
  1 38  1  0  0  0  0
  1 39  1  0  0  0  0
  1 40  1  0  0  0  0
  3 41  1  0  0  0  0
  4 42  1  0  0  0  0
  6 43  1  0  0  0  0
 10 44  1  0  0  0  0
 11 45  1  0  0  0  0
 13 46  1  0  0  0  0
 13 47  1  0  0  0  0
 14 48  1  0  0  0  0
 15 49  1  0  0  0  0
 15 50  1  0  0  0  0
 16 51  1  0  0  0  0
 16 52  1  0  0  0  0
 17 53  1  0  0  0  0
 18 54  1  0  0  0  0
 18 55  1  0  0  0  0
 18 56  1  0  0  0  0
 19 57  1  0  0  0  0
 19 58  1  0  0  0  0
 20 59  1  0  0  0  0
 20 60  1  0  0  0  0
 21 61  1  0  0  0  0
 22 62  1  0  0  0  0
 23 63  1  0  0  0  0
 25 64  1  0  0  0  0
 28 65  1  0  0  0  0
 29 66  1  0  0  0  0
 32 67  1  0  0  0  0
 33 68  1  0  0  0  0
 34 69  1  0  0  0  0
 36 70  1  0  0  0  0
 35 71  1  0  0  0  0
M  CHG  3  14   1  17   1  35   1
M  END
> <BIOSOLVEIT.HYDE_ESTIMATED_AFFINITY_LOWER_BOUNDARY [nM]>
106823385.529682

> <BIOSOLVEIT.HYDE_ESTIMATED_AFFINITY_UPPER_BOUNDARY [nM]>
10613534942.213907

> <BIOSOLVEIT.HYDE_LIGAND_EFFICIENCY range: ++, +, 0, -, -->
--

> <BIOSOLVEIT.HYDE_LIGAND_LIPOPHILIC_EFFICIENCY range: ++, +, 0, -, -->
--

> <BIOSOLVEIT.INTER_CLASH range: red, yellow, green>
yellow

> <BIOSOLVEIT.INTRA_CLASH range: red, yellow, green>
green

> <BIOSOLVEIT.LOGP>
1.17522

> <BIOSOLVEIT.MOLECULAR WEIGHT>
496.636

> <BIOSOLVEIT.MOLECULE_CHECKSUM>
MC4xNTU2MTk7MA==

> <BIOSOLVEIT.TORSION_QUALITY range: red, yellow, green, not rotatable>
red

> <BIOSOLVEIT.TPSA>
89.93

$$$$
3K5V_STI_2
foHydescor03222115263D 1   1.00000     0.00000     0
Hydescorer 1.1.0 fol007
 70 74  0  0  0  0            999 V2000
   -3.6842   10.1556   24.2415 C   0  0  0  0  0  0  0  0  0  0  0  0
   -3.0839    8.8390   24.7069 C   0  0  0  0  0  0  0  0  0  0  0  0
   -3.5567    8.2669   25.8834 C   0  0  0  0  0  0  0  0  0  0  0  0
   -3.0260    7.0622   26.3332 C   0  0  0  0  0  0  0  0  0  0  0  0
   -2.0232    6.4411   25.5960 C   0  0  0  0  0  0  0  0  0  0  0  0
   -1.4669    5.1941   26.0527 N   0  0  0  0  0  0  0  0  0  0  0  0
   -1.1643    4.8896   27.4240 C   0  0  0  0  0  0  0  0  0  0  0  0
   -1.2359    3.6921   27.8091 O   0  0  0  0  0  0  0  0  0  0  0  0
   -0.7303    5.9343   28.3820 C   0  0  0  0  0  0  0  0  0  0  0  0
   -0.6339    7.2546   27.9541 C   0  0  0  0  0  0  0  0  0  0  0  0
   -0.2292    8.2462   28.8423 C   0  0  0  0  0  0  0  0  0  0  0  0
    0.0747    7.8970   30.1547 C   0  0  0  0  0  0  0  0  0  0  0  0
    0.5191    8.9698   31.1359 C   0  0  0  0  0  0  0  0  0  0  0  0
   -0.5641    9.3400   32.0845 N   0  3  0  0  0  0  0  0  0  0  0  0
   -1.8374    9.6086   31.3970 C   0  0  0  0  0  0  0  0  0  0  0  0
   -2.6372    8.3304   31.1968 C   0  0  0  0  0  0  0  0  0  0  0  0
   -3.0626    7.7984   32.4988 N   0  3  0  0  0  0  0  0  0  0  0  0
   -3.1895    6.3359   32.4157 C   0  0  0  0  0  0  0  0  0  0  0  0
   -2.1457    8.2181   33.5713 C   0  0  0  0  0  0  0  0  0  0  0  0
   -0.7084    8.2612   33.0723 C   0  0  0  0  0  0  0  0  0  0  0  0
   -0.0200    6.5782   30.5868 C   0  0  0  0  0  0  0  0  0  0  0  0
   -0.4254    5.5903   29.6947 C   0  0  0  0  0  0  0  0  0  0  0  0
   -1.5451    7.0069   24.4186 C   0  0  0  0  0  0  0  0  0  0  0  0
   -2.0804    8.2121   23.9748 C   0  0  0  0  0  0  0  0  0  0  0  0
   -1.6096    8.7938   22.7914 N   0  0  0  0  0  0  0  0  0  0  0  0
   -1.8372    8.2437   21.4865 C   0  0  0  0  0  0  0  0  0  0  0  0
   -2.2855    6.9839   21.3838 N   0  0  0  0  0  0  0  0  0  0  0  0
   -2.5157    6.4178   20.1900 C   0  0  0  0  0  0  0  0  0  0  0  0
   -2.2866    7.1489   19.0290 C   0  0  0  0  0  0  0  0  0  0  0  0
   -1.8216    8.4543   19.1456 C   0  0  0  0  0  0  0  0  0  0  0  0
   -1.5795    9.2243   17.9385 C   0  0  0  0  0  0  0  0  0  0  0  0
   -2.0389   10.5347   17.8598 C   0  0  0  0  0  0  0  0  0  0  0  0
   -1.8043   11.2690   16.7026 C   0  0  0  0  0  0  0  0  0  0  0  0
   -1.1142   10.6656   15.6567 C   0  0  0  0  0  0  0  0  0  0  0  0
   -0.6811    9.4001   15.7564 N   0  0  0  0  0  0  0  0  0  0  0  0
   -0.8945    8.6707   16.8618 C   0  0  0  0  0  0  0  0  0  0  0  0
   -1.6123    8.9588   20.3725 N   0  0  0  0  0  0  0  0  0  0  0  0
   -3.2461   10.4387   23.3883 H   0  0  0  0  0  0  0  0  0  0  0  0
   -4.6657   10.0392   24.0895 H   0  0  0  0  0  0  0  0  0  0  0  0
   -3.5358   10.8552   24.9404 H   0  0  0  0  0  0  0  0  0  0  0  0
   -4.2781    8.7216   26.4057 H   0  0  0  0  0  0  0  0  0  0  0  0
   -3.3622    6.6467   27.1784 H   0  0  0  0  0  0  0  0  0  0  0  0
   -1.2779    4.4907   25.3676 H   0  0  0  0  0  0  0  0  0  0  0  0
   -0.8556    7.4909   27.0081 H   0  0  0  0  0  0  0  0  0  0  0  0
   -0.1577    9.1973   28.5415 H   0  0  0  0  0  0  0  0  0  0  0  0
    0.7912    9.7840   30.6228 H   0  0  0  0  0  0  0  0  0  0  0  0
    1.3011    8.6272   31.6566 H   0  0  0  0  0  0  0  0  0  0  0  0
   -0.2874   10.1712   32.5668 H   0  0  0  0  0  0  0  0  0  0  0  0
   -1.6460   10.0164   30.5042 H   0  0  0  0  0  0  0  0  0  0  0  0
   -2.3760   10.2472   31.9466 H   0  0  0  0  0  0  0  0  0  0  0  0
   -2.0682    7.6525   30.7313 H   0  0  0  0  0  0  0  0  0  0  0  0
   -3.4437    8.5277   30.6395 H   0  0  0  0  0  0  0  0  0  0  0  0
   -3.9666    8.1738   32.7033 H   0  0  0  0  0  0  0  0  0  0  0  0
   -3.4790    5.9755   33.3024 H   0  0  0  0  0  0  0  0  0  0  0  0
   -3.8693    6.0992   31.7216 H   0  0  0  0  0  0  0  0  0  0  0  0
   -2.3064    5.9384   32.1666 H   0  0  0  0  0  0  0  0  0  0  0  0
   -2.2096    7.5690   34.3293 H   0  0  0  0  0  0  0  0  0  0  0  0
   -2.4091    9.1289   33.8893 H   0  0  0  0  0  0  0  0  0  0  0  0
   -0.4771    7.3865   32.6464 H   0  0  0  0  0  0  0  0  0  0  0  0
   -0.0932    8.4301   33.8423 H   0  0  0  0  0  0  0  0  0  0  0  0
    0.2018    6.3416   31.5328 H   0  0  0  0  0  0  0  0  0  0  0  0
   -0.4970    4.6392   29.9953 H   0  0  0  0  0  0  0  0  0  0  0  0
   -0.8238    6.5519   23.8962 H   0  0  0  0  0  0  0  0  0  0  0  0
   -1.0842    9.6419   22.8600 H   0  0  0  0  0  0  0  0  0  0  0  0
   -2.8498    5.4769   20.1349 H   0  0  0  0  0  0  0  0  0  0  0  0
   -2.4527    6.7444   18.1297 H   0  0  0  0  0  0  0  0  0  0  0  0
   -2.5325   10.9442   18.6270 H   0  0  0  0  0  0  0  0  0  0  0  0
   -2.1255   12.2128   16.6240 H   0  0  0  0  0  0  0  0  0  0  0  0
   -0.9385   11.1824   14.8188 H   0  0  0  0  0  0  0  0  0  0  0  0
   -0.5611    7.7293   16.9119 H   0  0  0  0  0  0  0  0  0  0  0  0
  1  2  1  0  0  0  0
  2  3  2  0  0  0  0
  3  4  1  0  0  0  0
  4  5  2  0  0  0  0
  5  6  1  0  0  0  0
  6  7  1  0  0  0  0
  7  8  2  0  0  0  0
  7  9  1  0  0  0  0
  9 10  2  0  0  0  0
 10 11  1  0  0  0  0
 11 12  2  0  0  0  0
 12 13  1  0  0  0  0
 13 14  1  0  0  0  0
 14 15  1  0  0  0  0
 15 16  1  0  0  0  0
 16 17  1  0  0  0  0
 17 18  1  0  0  0  0
 17 19  1  0  0  0  0
 19 20  1  0  0  0  0
 12 21  1  0  0  0  0
 21 22  2  0  0  0  0
  5 23  1  0  0  0  0
 23 24  2  0  0  0  0
 24 25  1  0  0  0  0
 25 26  1  0  0  0  0
 26 27  2  0  0  0  0
 27 28  1  0  0  0  0
 28 29  2  0  0  0  0
 29 30  1  0  0  0  0
 30 31  1  0  0  0  0
 31 32  2  0  0  0  0
 32 33  1  0  0  0  0
 33 34  2  0  0  0  0
 34 35  1  0  0  0  0
 35 36  2  0  0  0  0
 30 37  2  0  0  0  0
 24  2  1  0  0  0  0
 37 26  1  0  0  0  0
 22  9  1  0  0  0  0
 36 31  1  0  0  0  0
 20 14  1  0  0  0  0
  1 38  1  0  0  0  0
  1 39  1  0  0  0  0
  1 40  1  0  0  0  0
  3 41  1  0  0  0  0
  4 42  1  0  0  0  0
  6 43  1  0  0  0  0
 10 44  1  0  0  0  0
 11 45  1  0  0  0  0
 13 46  1  0  0  0  0
 13 47  1  0  0  0  0
 14 48  1  0  0  0  0
 15 49  1  0  0  0  0
 15 50  1  0  0  0  0
 16 51  1  0  0  0  0
 16 52  1  0  0  0  0
 17 53  1  0  0  0  0
 18 54  1  0  0  0  0
 18 55  1  0  0  0  0
 18 56  1  0  0  0  0
 19 57  1  0  0  0  0
 19 58  1  0  0  0  0
 20 59  1  0  0  0  0
 20 60  1  0  0  0  0
 21 61  1  0  0  0  0
 22 62  1  0  0  0  0
 23 63  1  0  0  0  0
 25 64  1  0  0  0  0
 28 65  1  0  0  0  0
 29 66  1  0  0  0  0
 32 67  1  0  0  0  0
 33 68  1  0  0  0  0
 34 69  1  0  0  0  0
 36 70  1  0  0  0  0
M  CHG  2  14   1  17   1
M  END
> <BIOSOLVEIT.HYDE_ESTIMATED_AFFINITY_LOWER_BOUNDARY [nM]>
5216537426.126031

> <BIOSOLVEIT.HYDE_ESTIMATED_AFFINITY_UPPER_BOUNDARY [nM]>
518293835895.804810

> <BIOSOLVEIT.HYDE_LIGAND_EFFICIENCY range: ++, +, 0, -, -->
--

> <BIOSOLVEIT.HYDE_LIGAND_LIPOPHILIC_EFFICIENCY range: ++, +, 0, -, -->
--

> <BIOSOLVEIT.INTER_CLASH range: red, yellow, green>
red

> <BIOSOLVEIT.INTRA_CLASH range: red, yellow, green>
red

> <BIOSOLVEIT.LOGP>
1.75612

> <BIOSOLVEIT.MOLECULAR WEIGHT>
495.628

> <BIOSOLVEIT.MOLECULE_CHECKSUM>
OS43OTQ4Mjsw

> <BIOSOLVEIT.TORSION_QUALITY range: red, yellow, green, not rotatable>
yellow

> <BIOSOLVEIT.TPSA>
88.68

$$$$
3K5V_STI_3
foHydescor03222115263D 1   1.00000     0.00000     0
Hydescorer 1.1.0 fol007
 71 75  0  0  0  0            999 V2000
   -3.7273   10.1594   24.1478 C   0  0  0  0  0  0  0  0  0  0  0  0
   -3.1379    8.8517   24.6508 C   0  0  0  0  0  0  0  0  0  0  0  0
   -3.6461    8.2947   25.8197 C   0  0  0  0  0  0  0  0  0  0  0  0
   -3.1262    7.0984   26.3034 C   0  0  0  0  0  0  0  0  0  0  0  0
   -2.0985    6.4706   25.6074 C   0  0  0  0  0  0  0  0  0  0  0  0
   -1.5530    5.2321   26.0992 N   0  0  0  0  0  0  0  0  0  0  0  0
   -1.2060    4.9816   27.4709 C   0  0  0  0  0  0  0  0  0  0  0  0
   -1.2895    3.8043   27.9122 O   0  0  0  0  0  0  0  0  0  0  0  0
   -0.7137    6.0572   28.3644 C   0  0  0  0  0  0  0  0  0  0  0  0
   -0.6816    7.3684   27.9003 C   0  0  0  0  0  0  0  0  0  0  0  0
   -0.2233    8.3885   28.7277 C   0  0  0  0  0  0  0  0  0  0  0  0
    0.1989    8.0770   30.0168 C   0  0  0  0  0  0  0  0  0  0  0  0
    0.7030    9.1815   30.9318 C   0  0  0  0  0  0  0  0  0  0  0  0
   -0.1891    9.3844   32.1036 N   0  3  0  0  0  0  0  0  0  0  0  0
    0.3801    8.6229   33.2271 C   0  0  0  0  0  0  0  0  0  0  0  0
   -0.2699    9.0124   34.5473 C   0  0  0  0  0  0  0  0  0  0  0  0
   -1.4936    9.8032   34.3350 N   0  3  0  0  0  0  0  0  0  0  0  0
   -2.1008   10.1594   35.6256 C   0  0  0  0  0  0  0  0  0  0  0  0
   -1.1812   11.0562   33.6321 C   0  0  0  0  0  0  0  0  0  0  0  0
   -0.2389   10.8104   32.4634 C   0  0  0  0  0  0  0  0  0  0  0  0
    0.1688    6.7676   30.4850 C   0  0  0  0  0  0  0  0  0  0  0  0
   -0.2905    5.7509   29.6535 C   0  0  0  0  0  0  0  0  0  0  0  0
   -1.5850    7.0213   24.4377 C   0  0  0  0  0  0  0  0  0  0  0  0
   -2.1097    8.2179   23.9599 C   0  0  0  0  0  0  0  0  0  0  0  0
   -1.6034    8.7845   22.7839 N   0  0  0  0  0  0  0  0  0  0  0  0
   -1.8302    8.2427   21.4755 C   0  0  0  0  0  0  0  0  0  0  0  0
   -2.2749    6.9823   21.3644 N   0  0  0  0  0  0  0  0  0  0  0  0
   -2.5042    6.4239   20.1668 C   0  0  0  0  0  0  0  0  0  0  0  0
   -2.2779    7.1634   19.0107 C   0  0  0  0  0  0  0  0  0  0  0  0
   -1.8167    8.4694   19.1359 C   0  0  0  0  0  0  0  0  0  0  0  0
   -1.5775    9.2484   17.9340 C   0  0  0  0  0  0  0  0  0  0  0  0
   -1.9367   10.5918   17.9071 C   0  0  0  0  0  0  0  0  0  0  0  0
   -1.7052   11.3345   16.7547 C   0  0  0  0  0  0  0  0  0  0  0  0
   -1.1191   10.7059   15.6611 C   0  0  0  0  0  0  0  0  0  0  0  0
   -0.7816    9.4088   15.7112 N   0  3  0  0  0  0  0  0  0  0  0  0
   -0.9942    8.6707   16.8111 C   0  0  0  0  0  0  0  0  0  0  0  0
   -1.6080    8.9661   20.3661 N   0  0  0  0  0  0  0  0  0  0  0  0
   -3.2631   10.4318   23.3050 H   0  0  0  0  0  0  0  0  0  0  0  0
   -4.7030   10.0373   23.9664 H   0  0  0  0  0  0  0  0  0  0  0  0
   -3.6033   10.8693   24.8410 H   0  0  0  0  0  0  0  0  0  0  0  0
   -4.3851    8.7542   26.3123 H   0  0  0  0  0  0  0  0  0  0  0  0
   -3.4878    6.6937   27.1433 H   0  0  0  0  0  0  0  0  0  0  0  0
   -1.4053    4.4948   25.4401 H   0  0  0  0  0  0  0  0  0  0  0  0
   -0.9881    7.5776   26.9716 H   0  0  0  0  0  0  0  0  0  0  0  0
   -0.1975    9.3332   28.4007 H   0  0  0  0  0  0  0  0  0  0  0  0
    0.7520   10.0343   30.4118 H   0  0  0  0  0  0  0  0  0  0  0  0
    1.6159    8.9379   31.2593 H   0  0  0  0  0  0  0  0  0  0  0  0
   -1.1087    9.0516   31.8955 H   0  0  0  0  0  0  0  0  0  0  0  0
    1.3616    8.8068   33.2809 H   0  0  0  0  0  0  0  0  0  0  0  0
    0.2321    7.6470   33.0670 H   0  0  0  0  0  0  0  0  0  0  0  0
    0.3788    9.5549   35.0811 H   0  0  0  0  0  0  0  0  0  0  0  0
   -0.5038    8.1813   35.0518 H   0  0  0  0  0  0  0  0  0  0  0  0
   -2.1455    9.2711   33.7949 H   0  0  0  0  0  0  0  0  0  0  0  0
   -2.9299   10.6955   35.4674 H   0  0  0  0  0  0  0  0  0  0  0  0
   -2.3336    9.3254   36.1260 H   0  0  0  0  0  0  0  0  0  0  0  0
   -1.4519   10.6994   36.1616 H   0  0  0  0  0  0  0  0  0  0  0  0
   -0.7481   11.6904   34.2726 H   0  0  0  0  0  0  0  0  0  0  0  0
   -2.0299   11.4578   33.2881 H   0  0  0  0  0  0  0  0  0  0  0  0
    0.6796   11.1142   32.7166 H   0  0  0  0  0  0  0  0  0  0  0  0
   -0.5573   11.3342   31.6732 H   0  0  0  0  0  0  0  0  0  0  0  0
    0.4755    6.5582   31.4135 H   0  0  0  0  0  0  0  0  0  0  0  0
   -0.3162    4.8063   29.9806 H   0  0  0  0  0  0  0  0  0  0  0  0
   -0.8460    6.5616   23.9451 H   0  0  0  0  0  0  0  0  0  0  0  0
   -1.0516    9.6150   22.8607 H   0  0  0  0  0  0  0  0  0  0  0  0
   -2.8356    5.4824   20.1054 H   0  0  0  0  0  0  0  0  0  0  0  0
   -2.4432    6.7644   18.1088 H   0  0  0  0  0  0  0  0  0  0  0  0
   -2.3569   11.0188   18.7079 H   0  0  0  0  0  0  0  0  0  0  0  0
   -1.9553   12.3018   16.7129 H   0  0  0  0  0  0  0  0  0  0  0  0
   -0.9468   11.2284   14.8260 H   0  0  0  0  0  0  0  0  0  0  0  0
   -0.7332    7.7055   16.8238 H   0  0  0  0  0  0  0  0  0  0  0  0
   -0.3619    8.9820   14.9101 H   0  0  0  0  0  0  0  0  0  0  0  0
  1  2  1  0  0  0  0
  2  3  2  0  0  0  0
  3  4  1  0  0  0  0
  4  5  2  0  0  0  0
  5  6  1  0  0  0  0
  6  7  1  0  0  0  0
  7  8  2  0  0  0  0
  7  9  1  0  0  0  0
  9 10  2  0  0  0  0
 10 11  1  0  0  0  0
 11 12  2  0  0  0  0
 12 13  1  0  0  0  0
 13 14  1  0  0  0  0
 14 15  1  0  0  0  0
 15 16  1  0  0  0  0
 16 17  1  0  0  0  0
 17 18  1  0  0  0  0
 17 19  1  0  0  0  0
 19 20  1  0  0  0  0
 12 21  1  0  0  0  0
 21 22  2  0  0  0  0
  5 23  1  0  0  0  0
 23 24  2  0  0  0  0
 24 25  1  0  0  0  0
 25 26  1  0  0  0  0
 26 27  2  0  0  0  0
 27 28  1  0  0  0  0
 28 29  2  0  0  0  0
 29 30  1  0  0  0  0
 30 31  1  0  0  0  0
 31 32  2  0  0  0  0
 32 33  1  0  0  0  0
 33 34  2  0  0  0  0
 34 35  1  0  0  0  0
 35 36  2  0  0  0  0
 30 37  2  0  0  0  0
 24  2  1  0  0  0  0
 37 26  1  0  0  0  0
 22  9  1  0  0  0  0
 36 31  1  0  0  0  0
 20 14  1  0  0  0  0
  1 38  1  0  0  0  0
  1 39  1  0  0  0  0
  1 40  1  0  0  0  0
  3 41  1  0  0  0  0
  4 42  1  0  0  0  0
  6 43  1  0  0  0  0
 10 44  1  0  0  0  0
 11 45  1  0  0  0  0
 13 46  1  0  0  0  0
 13 47  1  0  0  0  0
 14 48  1  0  0  0  0
 15 49  1  0  0  0  0
 15 50  1  0  0  0  0
 16 51  1  0  0  0  0
 16 52  1  0  0  0  0
 17 53  1  0  0  0  0
 18 54  1  0  0  0  0
 18 55  1  0  0  0  0
 18 56  1  0  0  0  0
 19 57  1  0  0  0  0
 19 58  1  0  0  0  0
 20 59  1  0  0  0  0
 20 60  1  0  0  0  0
 21 61  1  0  0  0  0
 22 62  1  0  0  0  0
 23 63  1  0  0  0  0
 25 64  1  0  0  0  0
 28 65  1  0  0  0  0
 29 66  1  0  0  0  0
 32 67  1  0  0  0  0
 33 68  1  0  0  0  0
 34 69  1  0  0  0  0
 36 70  1  0  0  0  0
 35 71  1  0  0  0  0
M  CHG  3  14   1  17   1  35   1
M  END
> <BIOSOLVEIT.HYDE_ESTIMATED_AFFINITY_LOWER_BOUNDARY [nM]>
26600376.742974

> <BIOSOLVEIT.HYDE_ESTIMATED_AFFINITY_UPPER_BOUNDARY [nM]>
2642904703.288636

> <BIOSOLVEIT.HYDE_LIGAND_EFFICIENCY range: ++, +, 0, -, -->
--

> <BIOSOLVEIT.HYDE_LIGAND_LIPOPHILIC_EFFICIENCY range: ++, +, 0, -, -->
--

> <BIOSOLVEIT.INTER_CLASH range: red, yellow, green>
green

> <BIOSOLVEIT.INTRA_CLASH range: red, yellow, green>
red

> <BIOSOLVEIT.LOGP>
1.17522

> <BIOSOLVEIT.MOLECULAR WEIGHT>
496.636

> <BIOSOLVEIT.MOLECULE_CHECKSUM>
LTMuMjkwNzU7MC4wODg5Mzkz

> <BIOSOLVEIT.TORSION_QUALITY range: red, yellow, green, not rotatable>
yellow

> <BIOSOLVEIT.TPSA>
89.93

$$$$
