1FPU_PRC_1
foHydescor03222115253D 1   1.00000     0.00000     0
Hydescorer 1.1.0 fol007
 47 50  0  0  0  0            999 V2000
   20.9472   42.6261   52.0775 C   0  0  0  0  0  0  0  0  0  0  0  0
   20.8859   43.2542   53.4604 C   0  0  0  0  0  0  0  0  0  0  0  0
   19.6407   43.5207   54.0196 C   0  0  0  0  0  0  0  0  0  0  0  0
   19.5544   44.0947   55.2840 C   0  0  0  0  0  0  0  0  0  0  0  0
   20.7220   44.3964   55.9771 C   0  0  0  0  0  0  0  0  0  0  0  0
   20.6462   44.9744   57.2499 N   0  0  0  0  0  0  0  0  0  0  0  0
   21.7926   45.3465   58.0312 C   0  0  0  0  0  0  0  0  0  0  0  0
   22.8537   45.6995   57.4473 O   0  0  0  0  0  0  0  0  0  0  0  0
   21.7329   45.3535   59.5132 C   0  0  0  0  0  0  0  0  0  0  0  0
   20.4965   45.4132   60.1475 C   0  0  0  0  0  0  0  0  0  0  0  0
   20.4448   45.4186   61.5370 C   0  0  0  0  0  0  0  0  0  0  0  0
   21.6374   45.3638   62.2504 C   0  0  0  0  0  0  0  0  0  0  0  0
   22.8178   45.3069   61.6159 N   0  0  0  0  0  0  0  0  0  0  0  0
   22.8946   45.3001   60.2765 C   0  0  0  0  0  0  0  0  0  0  0  0
   21.9711   44.1329   55.4245 C   0  0  0  0  0  0  0  0  0  0  0  0
   22.0498   43.5589   54.1596 C   0  0  0  0  0  0  0  0  0  0  0  0
   23.3365   43.2794   53.5736 N   0  0  0  0  0  0  0  0  0  0  0  0
   24.3353   44.2442   53.3896 C   0  0  0  0  0  0  0  0  0  0  0  0
   25.0355   44.2416   52.2457 N   0  0  0  0  0  0  0  0  0  0  0  0
   26.0032   45.1411   52.0152 C   0  0  0  0  0  0  0  0  0  0  0  0
   26.2913   46.1006   52.9802 C   0  0  0  0  0  0  0  0  0  0  0  0
   25.5602   46.0953   54.1631 C   0  0  0  0  0  0  0  0  0  0  0  0
   25.8548   47.0933   55.1758 C   0  0  0  0  0  0  0  0  0  0  0  0
   26.4412   48.2970   54.7993 C   0  0  0  0  0  0  0  0  0  0  0  0
   26.7209   49.2504   55.7719 C   0  0  0  0  0  0  0  0  0  0  0  0
   26.4033   48.9674   57.0961 C   0  0  0  0  0  0  0  0  0  0  0  0
   25.8382   47.7990   57.4345 N   0  0  0  0  0  0  0  0  0  0  0  0
   25.5581   46.8630   56.5151 C   0  0  0  0  0  0  0  0  0  0  0  0
   24.6050   45.1657   54.3283 N   0  0  0  0  0  0  0  0  0  0  0  0
   21.9026   42.4961   51.8125 H   0  0  0  0  0  0  0  0  0  0  0  0
   20.4819   41.7410   52.0925 H   0  0  0  0  0  0  0  0  0  0  0  0
   20.4972   43.2280   51.4178 H   0  0  0  0  0  0  0  0  0  0  0  0
   18.8073   43.2998   53.5128 H   0  0  0  0  0  0  0  0  0  0  0  0
   18.6616   44.2884   55.6906 H   0  0  0  0  0  0  0  0  0  0  0  0
   19.7395   45.1381   57.6385 H   0  0  0  0  0  0  0  0  0  0  0  0
   19.6541   45.4517   59.6101 H   0  0  0  0  0  0  0  0  0  0  0  0
   19.5670   45.4611   62.0141 H   0  0  0  0  0  0  0  0  0  0  0  0
   21.6146   45.3669   63.2502 H   0  0  0  0  0  0  0  0  0  0  0  0
   23.7868   45.2567   59.8270 H   0  0  0  0  0  0  0  0  0  0  0  0
   22.8043   44.3538   55.9314 H   0  0  0  0  0  0  0  0  0  0  0  0
   23.5274   42.3423   53.2814 H   0  0  0  0  0  0  0  0  0  0  0  0
   26.5139   45.1223   51.1556 H   0  0  0  0  0  0  0  0  0  0  0  0
   27.0090   46.7798   52.8266 H   0  0  0  0  0  0  0  0  0  0  0  0
   26.6592   48.4748   53.8397 H   0  0  0  0  0  0  0  0  0  0  0  0
   27.1424   50.1228   55.5242 H   0  0  0  0  0  0  0  0  0  0  0  0
   26.5990   49.6443   57.8056 H   0  0  0  0  0  0  0  0  0  0  0  0
   25.1362   45.9999   56.7927 H   0  0  0  0  0  0  0  0  0  0  0  0
  1  2  1  0  0  0  0
  2  3  2  0  0  0  0
  3  4  1  0  0  0  0
  4  5  2  0  0  0  0
  5  6  1  0  0  0  0
  6  7  1  0  0  0  0
  7  8  2  0  0  0  0
  7  9  1  0  0  0  0
  9 10  2  0  0  0  0
 10 11  1  0  0  0  0
 11 12  2  0  0  0  0
 12 13  1  0  0  0  0
 13 14  2  0  0  0  0
  5 15  1  0  0  0  0
 15 16  2  0  0  0  0
 16 17  1  0  0  0  0
 17 18  1  0  0  0  0
 18 19  2  0  0  0  0
 19 20  1  0  0  0  0
 20 21  2  0  0  0  0
 21 22  1  0  0  0  0
 22 23  1  0  0  0  0
 23 24  2  0  0  0  0
 24 25  1  0  0  0  0
 25 26  2  0  0  0  0
 26 27  1  0  0  0  0
 27 28  2  0  0  0  0
 22 29  2  0  0  0  0
 16  2  1  0  0  0  0
 29 18  1  0  0  0  0
 14  9  1  0  0  0  0
 28 23  1  0  0  0  0
  1 30  1  0  0  0  0
  1 31  1  0  0  0  0
  1 32  1  0  0  0  0
  3 33  1  0  0  0  0
  4 34  1  0  0  0  0
  6 35  1  0  0  0  0
 10 36  1  0  0  0  0
 11 37  1  0  0  0  0
 12 38  1  0  0  0  0
 14 39  1  0  0  0  0
 15 40  1  0  0  0  0
 17 41  1  0  0  0  0
 20 42  1  0  0  0  0
 21 43  1  0  0  0  0
 24 44  1  0  0  0  0
 25 45  1  0  0  0  0
 26 46  1  0  0  0  0
 28 47  1  0  0  0  0
M  END
> <BIOSOLVEIT.HYDE_ESTIMATED_AFFINITY_LOWER_BOUNDARY [nM]>
2379085.394616

> <BIOSOLVEIT.HYDE_ESTIMATED_AFFINITY_UPPER_BOUNDARY [nM]>
236376200.221220

> <BIOSOLVEIT.HYDE_LIGAND_EFFICIENCY range: ++, +, 0, -, -->
--

> <BIOSOLVEIT.HYDE_LIGAND_LIPOPHILIC_EFFICIENCY range: ++, +, 0, -, -->
--

> <BIOSOLVEIT.INTER_CLASH range: red, yellow, green>
green

> <BIOSOLVEIT.INTRA_CLASH range: red, yellow, green>
red

> <BIOSOLVEIT.LOGP>
4.23792

> <BIOSOLVEIT.MOLECULAR WEIGHT>
382.425

> <BIOSOLVEIT.MOLECULE_CHECKSUM>
LTkuMjc1NDg7MC4zMTk4NDQ=

> <BIOSOLVEIT.TORSION_QUALITY range: red, yellow, green, not rotatable>
yellow

> <BIOSOLVEIT.TPSA>
92.69

$$$$
1FPU_PRC_2
foHydescor03222115253D 1   1.00000     0.00000     0
Hydescorer 1.1.0 fol007
 47 50  0  0  0  0            999 V2000
   21.9334   43.3078   53.0552 C   0  0  0  0  0  0  0  0  0  0  0  0
   22.1882   43.9618   54.4036 C   0  0  0  0  0  0  0  0  0  0  0  0
   21.1016   44.4227   55.1395 C   0  0  0  0  0  0  0  0  0  0  0  0
   21.3048   45.0251   56.3770 C   0  0  0  0  0  0  0  0  0  0  0  0
   22.6002   45.1591   56.8657 C   0  0  0  0  0  0  0  0  0  0  0  0
   22.8158   45.7640   58.1098 N   0  0  0  0  0  0  0  0  0  0  0  0
   23.3533   45.0791   59.2520 C   0  0  0  0  0  0  0  0  0  0  0  0
   24.1567   44.1217   59.0804 O   0  0  0  0  0  0  0  0  0  0  0  0
   23.0026   45.5053   60.6287 C   0  0  0  0  0  0  0  0  0  0  0  0
   24.0158   45.7203   61.5569 C   0  0  0  0  0  0  0  0  0  0  0  0
   23.6830   46.1206   62.8462 C   0  0  0  0  0  0  0  0  0  0  0  0
   22.3407   46.2938   63.1667 C   0  0  0  0  0  0  0  0  0  0  0  0
   21.3814   46.0801   62.2540 N   0  0  0  0  0  0  0  0  0  0  0  0
   21.6764   45.6938   61.0036 C   0  0  0  0  0  0  0  0  0  0  0  0
   23.6920   44.7007   56.1356 C   0  0  0  0  0  0  0  0  0  0  0  0
   23.4812   44.0995   54.8988 C   0  0  0  0  0  0  0  0  0  0  0  0
   24.6020   43.6191   54.1305 N   0  0  0  0  0  0  0  0  0  0  0  0
   25.5191   44.4566   53.4827 C   0  0  0  0  0  0  0  0  0  0  0  0
   25.9681   44.1085   52.2678 N   0  0  0  0  0  0  0  0  0  0  0  0
   26.8468   44.8714   51.6010 C   0  0  0  0  0  0  0  0  0  0  0  0
   27.3060   46.0512   52.1772 C   0  0  0  0  0  0  0  0  0  0  0  0
   26.8351   46.4037   53.4373 C   0  0  0  0  0  0  0  0  0  0  0  0
   27.3097   47.6335   54.0461 C   0  0  0  0  0  0  0  0  0  0  0  0
   28.3686   48.3210   53.4627 C   0  0  0  0  0  0  0  0  0  0  0  0
   28.8195   49.4988   54.0482 C   0  0  0  0  0  0  0  0  0  0  0  0
   28.1933   49.9529   55.2040 C   0  0  0  0  0  0  0  0  0  0  0  0
   27.1738   49.2721   55.7482 N   0  0  0  0  0  0  0  0  0  0  0  0
   26.7200   48.1336   55.2025 C   0  0  0  0  0  0  0  0  0  0  0  0
   25.9559   45.5932   54.0487 N   0  0  0  0  0  0  0  0  0  0  0  0
   22.8042   43.0306   52.6494 H   0  0  0  0  0  0  0  0  0  0  0  0
   21.3524   42.5035   53.1794 H   0  0  0  0  0  0  0  0  0  0  0  0
   21.4758   43.9593   52.4500 H   0  0  0  0  0  0  0  0  0  0  0  0
   20.1743   44.3211   54.7791 H   0  0  0  0  0  0  0  0  0  0  0  0
   20.5271   45.3584   56.9100 H   0  0  0  0  0  0  0  0  0  0  0  0
   22.5814   46.7311   58.2091 H   0  0  0  0  0  0  0  0  0  0  0  0
   24.9732   45.5884   61.2999 H   0  0  0  0  0  0  0  0  0  0  0  0
   24.3950   46.2809   63.5299 H   0  0  0  0  0  0  0  0  0  0  0  0
   22.0874   46.5816   64.0902 H   0  0  0  0  0  0  0  0  0  0  0  0
   20.9429   45.5413   60.3412 H   0  0  0  0  0  0  0  0  0  0  0  0
   24.6192   44.8022   56.4962 H   0  0  0  0  0  0  0  0  0  0  0  0
   24.7324   42.6305   54.0555 H   0  0  0  0  0  0  0  0  0  0  0  0
   27.1695   44.5941   50.6960 H   0  0  0  0  0  0  0  0  0  0  0  0
   27.9610   46.6335   51.6955 H   0  0  0  0  0  0  0  0  0  0  0  0
   28.8009   47.9720   52.6312 H   0  0  0  0  0  0  0  0  0  0  0  0
   29.5794   50.0096   53.6459 H   0  0  0  0  0  0  0  0  0  0  0  0
   28.5076   50.7985   55.6353 H   0  0  0  0  0  0  0  0  0  0  0  0
   25.9581   47.6445   55.6269 H   0  0  0  0  0  0  0  0  0  0  0  0
  1  2  1  0  0  0  0
  2  3  2  0  0  0  0
  3  4  1  0  0  0  0
  4  5  2  0  0  0  0
  5  6  1  0  0  0  0
  6  7  1  0  0  0  0
  7  8  2  0  0  0  0
  7  9  1  0  0  0  0
  9 10  2  0  0  0  0
 10 11  1  0  0  0  0
 11 12  2  0  0  0  0
 12 13  1  0  0  0  0
 13 14  2  0  0  0  0
  5 15  1  0  0  0  0
 15 16  2  0  0  0  0
 16 17  1  0  0  0  0
 17 18  1  0  0  0  0
 18 19  2  0  0  0  0
 19 20  1  0  0  0  0
 20 21  2  0  0  0  0
 21 22  1  0  0  0  0
 22 23  1  0  0  0  0
 23 24  2  0  0  0  0
 24 25  1  0  0  0  0
 25 26  2  0  0  0  0
 26 27  1  0  0  0  0
 27 28  2  0  0  0  0
 22 29  2  0  0  0  0
 16  2  1  0  0  0  0
 29 18  1  0  0  0  0
 14  9  1  0  0  0  0
 28 23  1  0  0  0  0
  1 30  1  0  0  0  0
  1 31  1  0  0  0  0
  1 32  1  0  0  0  0
  3 33  1  0  0  0  0
  4 34  1  0  0  0  0
  6 35  1  0  0  0  0
 10 36  1  0  0  0  0
 11 37  1  0  0  0  0
 12 38  1  0  0  0  0
 14 39  1  0  0  0  0
 15 40  1  0  0  0  0
 17 41  1  0  0  0  0
 20 42  1  0  0  0  0
 21 43  1  0  0  0  0
 24 44  1  0  0  0  0
 25 45  1  0  0  0  0
 26 46  1  0  0  0  0
 28 47  1  0  0  0  0
M  END
> <BIOSOLVEIT.HYDE_ESTIMATED_AFFINITY_LOWER_BOUNDARY [nM]>
85138.924236

> <BIOSOLVEIT.HYDE_ESTIMATED_AFFINITY_UPPER_BOUNDARY [nM]>
8459055.504001

> <BIOSOLVEIT.HYDE_LIGAND_EFFICIENCY range: ++, +, 0, -, -->
--

> <BIOSOLVEIT.HYDE_LIGAND_LIPOPHILIC_EFFICIENCY range: ++, +, 0, -, -->
--

> <BIOSOLVEIT.INTER_CLASH range: red, yellow, green>
green

> <BIOSOLVEIT.INTRA_CLASH range: red, yellow, green>
green

> <BIOSOLVEIT.LOGP>
4.23792

> <BIOSOLVEIT.MOLECULAR WEIGHT>
382.425

> <BIOSOLVEIT.MOLECULE_CHECKSUM>
LTE3LjUzMDk7MC42MDQ1MTM=

> <BIOSOLVEIT.TORSION_QUALITY range: red, yellow, green, not rotatable>
red

> <BIOSOLVEIT.TPSA>
92.69

$$$$
1FPU_PRC_3
foHydescor03222115253D 1   1.00000     0.00000     0
Hydescorer 1.1.0 fol007
 47 50  0  0  0  0            999 V2000
   21.3671   43.0946   52.6918 C   0  0  0  0  0  0  0  0  0  0  0  0
   21.6731   43.8499   53.9750 C   0  0  0  0  0  0  0  0  0  0  0  0
   20.6357   44.5077   54.6276 C   0  0  0  0  0  0  0  0  0  0  0  0
   20.8865   45.2066   55.8041 C   0  0  0  0  0  0  0  0  0  0  0  0
   22.1795   45.2387   56.3159 C   0  0  0  0  0  0  0  0  0  0  0  0
   22.4426   45.9393   57.4991 N   0  0  0  0  0  0  0  0  0  0  0  0
   23.6796   46.6163   57.7722 C   0  0  0  0  0  0  0  0  0  0  0  0
   24.3492   47.0951   56.8162 O   0  0  0  0  0  0  0  0  0  0  0  0
   24.1607   46.7890   59.1645 C   0  0  0  0  0  0  0  0  0  0  0  0
   23.7922   45.8634   60.1350 C   0  0  0  0  0  0  0  0  0  0  0  0
   24.2461   46.0281   61.4389 C   0  0  0  0  0  0  0  0  0  0  0  0
   25.0578   47.1191   61.7310 C   0  0  0  0  0  0  0  0  0  0  0  0
   25.3995   47.9986   60.7777 N   0  0  0  0  0  0  0  0  0  0  0  0
   24.9750   47.8617   59.5125 C   0  0  0  0  0  0  0  0  0  0  0  0
   23.2222   44.5834   55.6691 C   0  0  0  0  0  0  0  0  0  0  0  0
   22.9641   43.8866   54.4928 C   0  0  0  0  0  0  0  0  0  0  0  0
   24.0336   43.2023   53.8109 N   0  0  0  0  0  0  0  0  0  0  0  0
   25.3331   43.7113   53.6910 C   0  0  0  0  0  0  0  0  0  0  0  0
   25.8193   43.9644   52.4669 N   0  0  0  0  0  0  0  0  0  0  0  0
   27.0563   44.4519   52.2919 C   0  0  0  0  0  0  0  0  0  0  0  0
   27.8575   44.7030   53.4009 C   0  0  0  0  0  0  0  0  0  0  0  0
   27.3450   44.4372   54.6661 C   0  0  0  0  0  0  0  0  0  0  0  0
   28.1748   44.6962   55.8291 C   0  0  0  0  0  0  0  0  0  0  0  0
   29.5549   44.7819   55.6788 C   0  0  0  0  0  0  0  0  0  0  0  0
   30.3461   45.0309   56.7949 C   0  0  0  0  0  0  0  0  0  0  0  0
   29.7279   45.1868   58.0310 C   0  0  0  0  0  0  0  0  0  0  0  0
   28.3947   45.0996   58.1505 N   0  0  0  0  0  0  0  0  0  0  0  0
   27.6096   44.8606   57.0893 C   0  0  0  0  0  0  0  0  0  0  0  0
   26.0978   43.9496   54.7688 N   0  0  0  0  0  0  0  0  0  0  0  0
   22.2060   42.6775   52.3424 H   0  0  0  0  0  0  0  0  0  0  0  0
   20.6924   42.3805   52.8782 H   0  0  0  0  0  0  0  0  0  0  0  0
   21.0015   43.7290   52.0108 H   0  0  0  0  0  0  0  0  0  0  0  0
   19.7098   44.4782   54.2512 H   0  0  0  0  0  0  0  0  0  0  0  0
   20.1444   45.6814   56.2772 H   0  0  0  0  0  0  0  0  0  0  0  0
   21.7262   45.9703   58.1961 H   0  0  0  0  0  0  0  0  0  0  0  0
   23.2073   45.0878   59.8976 H   0  0  0  0  0  0  0  0  0  0  0  0
   23.9939   45.3749   62.1529 H   0  0  0  0  0  0  0  0  0  0  0  0
   25.3913   47.2496   62.6647 H   0  0  0  0  0  0  0  0  0  0  0  0
   25.2441   48.5306   58.8196 H   0  0  0  0  0  0  0  0  0  0  0  0
   24.1480   44.6128   56.0458 H   0  0  0  0  0  0  0  0  0  0  0  0
   23.8366   42.3124   53.3994 H   0  0  0  0  0  0  0  0  0  0  0  0
   27.4003   44.6336   51.3706 H   0  0  0  0  0  0  0  0  0  0  0  0
   28.7825   45.0668   53.2908 H   0  0  0  0  0  0  0  0  0  0  0  0
   29.9736   44.6658   54.7782 H   0  0  0  0  0  0  0  0  0  0  0  0
   31.3403   45.0967   56.7104 H   0  0  0  0  0  0  0  0  0  0  0  0
   30.2850   45.3664   58.8418 H   0  0  0  0  0  0  0  0  0  0  0  0
   26.6181   44.8005   57.2043 H   0  0  0  0  0  0  0  0  0  0  0  0
  1  2  1  0  0  0  0
  2  3  2  0  0  0  0
  3  4  1  0  0  0  0
  4  5  2  0  0  0  0
  5  6  1  0  0  0  0
  6  7  1  0  0  0  0
  7  8  2  0  0  0  0
  7  9  1  0  0  0  0
  9 10  2  0  0  0  0
 10 11  1  0  0  0  0
 11 12  2  0  0  0  0
 12 13  1  0  0  0  0
 13 14  2  0  0  0  0
  5 15  1  0  0  0  0
 15 16  2  0  0  0  0
 16 17  1  0  0  0  0
 17 18  1  0  0  0  0
 18 19  2  0  0  0  0
 19 20  1  0  0  0  0
 20 21  2  0  0  0  0
 21 22  1  0  0  0  0
 22 23  1  0  0  0  0
 23 24  2  0  0  0  0
 24 25  1  0  0  0  0
 25 26  2  0  0  0  0
 26 27  1  0  0  0  0
 27 28  2  0  0  0  0
 22 29  2  0  0  0  0
 16  2  1  0  0  0  0
 29 18  1  0  0  0  0
 14  9  1  0  0  0  0
 28 23  1  0  0  0  0
  1 30  1  0  0  0  0
  1 31  1  0  0  0  0
  1 32  1  0  0  0  0
  3 33  1  0  0  0  0
  4 34  1  0  0  0  0
  6 35  1  0  0  0  0
 10 36  1  0  0  0  0
 11 37  1  0  0  0  0
 12 38  1  0  0  0  0
 14 39  1  0  0  0  0
 15 40  1  0  0  0  0
 17 41  1  0  0  0  0
 20 42  1  0  0  0  0
 21 43  1  0  0  0  0
 24 44  1  0  0  0  0
 25 45  1  0  0  0  0
 26 46  1  0  0  0  0
 28 47  1  0  0  0  0
M  END
> <BIOSOLVEIT.HYDE_ESTIMATED_AFFINITY_LOWER_BOUNDARY [nM]>
6983188.169894

> <BIOSOLVEIT.HYDE_ESTIMATED_AFFINITY_UPPER_BOUNDARY [nM]>
693821032.554965

> <BIOSOLVEIT.HYDE_LIGAND_EFFICIENCY range: ++, +, 0, -, -->
--

> <BIOSOLVEIT.HYDE_LIGAND_LIPOPHILIC_EFFICIENCY range: ++, +, 0, -, -->
--

> <BIOSOLVEIT.INTER_CLASH range: red, yellow, green>
green

> <BIOSOLVEIT.INTRA_CLASH range: red, yellow, green>
green

> <BIOSOLVEIT.LOGP>
4.23792

> <BIOSOLVEIT.MOLECULAR WEIGHT>
382.425

> <BIOSOLVEIT.MOLECULE_CHECKSUM>
LTYuNjA2MTY7MC4yMjc3OTk=

> <BIOSOLVEIT.TORSION_QUALITY range: red, yellow, green, not rotatable>
red

> <BIOSOLVEIT.TPSA>
92.69

$$$$
6HD6_FYH_1
foHydescor03222115253D 1   1.00000     0.00000     0
Hydescorer 1.1.0 fol007
 47 49  0  0  0  0            999 V2000
   20.2793   42.8765   55.2688 O   0  0  0  0  0  0  0  0  0  0  0  0
   20.5857   43.8844   54.5747 C   0  0  0  0  0  0  0  0  0  0  0  0
   19.8468   44.1743   53.3758 N   0  0  0  0  0  0  0  0  0  0  0  0
   19.2258   43.1678   52.5573 C   0  0  0  0  0  0  0  0  0  0  0  0
   17.8775   42.8739   52.7343 C   0  0  0  0  0  0  0  0  0  0  0  0
   17.2681   41.9018   51.9471 C   0  0  0  0  0  0  0  0  0  0  0  0
   18.0225   41.2334   50.9885 C   0  0  0  0  0  0  0  0  0  0  0  0
   17.4437   40.2879   50.2191 O   0  0  0  0  0  0  0  0  0  0  0  0
   17.2676   38.9212   50.5858 C   0  0  0  0  0  0  0  0  0  0  0  0
   16.4910   38.8598   51.7266 F   0  0  0  0  0  0  0  0  0  0  0  0
   16.6250   38.2343   49.5714 F   0  0  0  0  0  0  0  0  0  0  0  0
   18.4934   38.3363   50.8490 F   0  0  0  0  0  0  0  0  0  0  0  0
   19.3719   41.5203   50.8049 C   0  0  0  0  0  0  0  0  0  0  0  0
   19.9728   42.4937   51.5961 C   0  0  0  0  0  0  0  0  0  0  0  0
   21.6467   44.7641   55.0245 C   0  0  0  0  0  0  0  0  0  0  0  0
   21.3678   45.7725   55.9412 C   0  0  0  0  0  0  0  0  0  0  0  0
   22.3985   46.6071   56.3616 C   0  0  0  0  0  0  0  0  0  0  0  0
   23.6930   46.4448   55.8787 C   0  0  0  0  0  0  0  0  0  0  0  0
   23.9494   45.4293   54.9627 C   0  0  0  0  0  0  0  0  0  0  0  0
   25.3522   45.2433   54.4316 C   0  0  0  0  0  0  0  0  0  0  0  0
   25.3585   44.9775   52.9850 N   0  3  0  0  0  0  0  0  0  0  0  0
   26.7299   44.6113   52.5860 C   0  0  0  0  0  0  0  0  0  0  0  0
   27.2484   45.5380   51.4942 C   0  0  0  0  0  0  0  0  0  0  0  0
   26.3277   45.5767   50.4133 O   0  0  0  0  0  0  0  0  0  0  0  0
   25.0153   45.9804   50.7959 C   0  0  0  0  0  0  0  0  0  0  0  0
   24.8595   46.1792   52.2975 C   0  0  0  0  0  0  0  0  0  0  0  0
   22.9337   44.5835   54.5288 C   0  0  0  0  0  0  0  0  0  0  0  0
   19.7597   45.1301   53.0950 H   0  0  0  0  0  0  0  0  0  0  0  0
   17.3463   43.3613   53.4274 H   0  0  0  0  0  0  0  0  0  0  0  0
   16.2992   41.6863   52.0690 H   0  0  0  0  0  0  0  0  0  0  0  0
   19.9033   41.0323   50.1124 H   0  0  0  0  0  0  0  0  0  0  0  0
   20.9417   42.7092   51.4741 H   0  0  0  0  0  0  0  0  0  0  0  0
   20.4398   45.8958   56.2930 H   0  0  0  0  0  0  0  0  0  0  0  0
   22.2060   47.3343   57.0204 H   0  0  0  0  0  0  0  0  0  0  0  0
   24.4284   47.0490   56.1854 H   0  0  0  0  0  0  0  0  0  0  0  0
   25.7775   44.4714   54.9043 H   0  0  0  0  0  0  0  0  0  0  0  0
   25.8787   46.0745   54.6102 H   0  0  0  0  0  0  0  0  0  0  0  0
   24.7458   44.2115   52.7907 H   0  0  0  0  0  0  0  0  0  0  0  0
   26.7308   43.6714   52.2445 H   0  0  0  0  0  0  0  0  0  0  0  0
   27.3305   44.6771   53.3828 H   0  0  0  0  0  0  0  0  0  0  0  0
   28.1310   45.2016   51.1657 H   0  0  0  0  0  0  0  0  0  0  0  0
   27.3606   46.4592   51.8670 H   0  0  0  0  0  0  0  0  0  0  0  0
   24.3682   45.2777   50.5000 H   0  0  0  0  0  0  0  0  0  0  0  0
   24.8026   46.8435   50.3379 H   0  0  0  0  0  0  0  0  0  0  0  0
   23.8947   46.3187   52.5205 H   0  0  0  0  0  0  0  0  0  0  0  0
   25.3874   46.9772   52.5882 H   0  0  0  0  0  0  0  0  0  0  0  0
   23.1261   43.8562   53.8701 H   0  0  0  0  0  0  0  0  0  0  0  0
  1  2  2  0  0  0  0
  2  3  1  0  0  0  0
  3  4  1  0  0  0  0
  4  5  2  0  0  0  0
  5  6  1  0  0  0  0
  6  7  2  0  0  0  0
  7  8  1  0  0  0  0
  8  9  1  0  0  0  0
  9 10  1  0  0  0  0
  9 11  1  0  0  0  0
  9 12  1  0  0  0  0
  7 13  1  0  0  0  0
 13 14  2  0  0  0  0
  2 15  1  0  0  0  0
 15 16  2  0  0  0  0
 16 17  1  0  0  0  0
 17 18  2  0  0  0  0
 18 19  1  0  0  0  0
 19 20  1  0  0  0  0
 20 21  1  0  0  0  0
 21 22  1  0  0  0  0
 22 23  1  0  0  0  0
 23 24  1  0  0  0  0
 24 25  1  0  0  0  0
 25 26  1  0  0  0  0
 19 27  2  0  0  0  0
 14  4  1  0  0  0  0
 27 15  1  0  0  0  0
 26 21  1  0  0  0  0
  3 28  1  0  0  0  0
  5 29  1  0  0  0  0
  6 30  1  0  0  0  0
 13 31  1  0  0  0  0
 14 32  1  0  0  0  0
 16 33  1  0  0  0  0
 17 34  1  0  0  0  0
 18 35  1  0  0  0  0
 20 36  1  0  0  0  0
 20 37  1  0  0  0  0
 21 38  1  0  0  0  0
 22 39  1  0  0  0  0
 22 40  1  0  0  0  0
 23 41  1  0  0  0  0
 23 42  1  0  0  0  0
 25 43  1  0  0  0  0
 25 44  1  0  0  0  0
 26 45  1  0  0  0  0
 26 46  1  0  0  0  0
 27 47  1  0  0  0  0
M  CHG  1  21   1
M  END
> <BIOSOLVEIT.HYDE_ESTIMATED_AFFINITY_LOWER_BOUNDARY [nM]>
46842.906142

> <BIOSOLVEIT.HYDE_ESTIMATED_AFFINITY_UPPER_BOUNDARY [nM]>
4654119.682365

> <BIOSOLVEIT.HYDE_LIGAND_EFFICIENCY range: ++, +, 0, -, -->
--

> <BIOSOLVEIT.HYDE_LIGAND_LIPOPHILIC_EFFICIENCY range: ++, +, 0, -, -->
--

> <BIOSOLVEIT.INTER_CLASH range: red, yellow, green>
green

> <BIOSOLVEIT.INTRA_CLASH range: red, yellow, green>
green

> <BIOSOLVEIT.LOGP>
2.2526

> <BIOSOLVEIT.MOLECULAR WEIGHT>
381.372

> <BIOSOLVEIT.MOLECULE_CHECKSUM>
LTE5LjAxMjswLjcwNDE0OA==

> <BIOSOLVEIT.TORSION_QUALITY range: red, yellow, green, not rotatable>
red

> <BIOSOLVEIT.TPSA>
52

$$$$
6HD6_FYH_2
foHydescor03222115253D 1   1.00000     0.00000     0
Hydescorer 1.1.0 fol007
 47 49  0  0  0  0            999 V2000
   19.2116   43.8451   55.4974 O   0  0  0  0  0  0  0  0  0  0  0  0
   20.2896   44.1451   54.9146 C   0  0  0  0  0  0  0  0  0  0  0  0
   20.3511   44.1269   53.4782 N   0  0  0  0  0  0  0  0  0  0  0  0
   19.5593   43.2519   52.6560 C   0  0  0  0  0  0  0  0  0  0  0  0
   18.2116   43.0676   52.9481 C   0  0  0  0  0  0  0  0  0  0  0  0
   17.4377   42.2230   52.1581 C   0  0  0  0  0  0  0  0  0  0  0  0
   18.0284   41.5707   51.0810 C   0  0  0  0  0  0  0  0  0  0  0  0
   17.2891   40.7485   50.3075 O   0  0  0  0  0  0  0  0  0  0  0  0
   17.0379   39.3705   50.5749 C   0  0  0  0  0  0  0  0  0  0  0  0
   16.3898   39.2606   51.7898 F   0  0  0  0  0  0  0  0  0  0  0  0
   16.2305   38.8327   49.5885 F   0  0  0  0  0  0  0  0  0  0  0  0
   18.2305   38.6725   50.6412 F   0  0  0  0  0  0  0  0  0  0  0  0
   19.3759   41.7486   50.7817 C   0  0  0  0  0  0  0  0  0  0  0  0
   20.1418   42.5950   51.5765 C   0  0  0  0  0  0  0  0  0  0  0  0
   21.4365   44.5529   55.7023 C   0  0  0  0  0  0  0  0  0  0  0  0
   21.2649   44.9328   57.0294 C   0  0  0  0  0  0  0  0  0  0  0  0
   22.3769   45.3212   57.7699 C   0  0  0  0  0  0  0  0  0  0  0  0
   23.6466   45.3332   57.2017 C   0  0  0  0  0  0  0  0  0  0  0  0
   23.7951   44.9488   55.8726 C   0  0  0  0  0  0  0  0  0  0  0  0
   25.1700   44.9576   55.2448 C   0  0  0  0  0  0  0  0  0  0  0  0
   25.1361   44.4991   53.8479 N   0  3  0  0  0  0  0  0  0  0  0  0
   24.6669   45.6043   52.9994 C   0  0  0  0  0  0  0  0  0  0  0  0
   24.7596   45.2089   51.5324 C   0  0  0  0  0  0  0  0  0  0  0  0
   26.0379   44.6791   51.1844 O   0  0  0  0  0  0  0  0  0  0  0  0
   26.9969   44.7264   52.2391 C   0  0  0  0  0  0  0  0  0  0  0  0
   26.4662   44.0061   53.4697 C   0  0  0  0  0  0  0  0  0  0  0  0
   22.6969   44.5570   55.1139 C   0  0  0  0  0  0  0  0  0  0  0  0
   20.9802   44.7585   53.0251 H   0  0  0  0  0  0  0  0  0  0  0  0
   17.7990   43.5421   53.7256 H   0  0  0  0  0  0  0  0  0  0  0  0
   16.4683   42.0866   52.3624 H   0  0  0  0  0  0  0  0  0  0  0  0
   19.7885   41.2736   50.0044 H   0  0  0  0  0  0  0  0  0  0  0  0
   21.1112   42.7314   51.3722 H   0  0  0  0  0  0  0  0  0  0  0  0
   20.3554   44.9269   57.4452 H   0  0  0  0  0  0  0  0  0  0  0  0
   22.2617   45.5958   58.7246 H   0  0  0  0  0  0  0  0  0  0  0  0
   24.4409   45.6139   57.7404 H   0  0  0  0  0  0  0  0  0  0  0  0
   25.7691   44.3528   55.7695 H   0  0  0  0  0  0  0  0  0  0  0  0
   25.5317   45.8895   55.2709 H   0  0  0  0  0  0  0  0  0  0  0  0
   24.4844   43.7440   53.7764 H   0  0  0  0  0  0  0  0  0  0  0  0
   25.2353   46.4109   53.1616 H   0  0  0  0  0  0  0  0  0  0  0  0
   23.7161   45.8155   53.2261 H   0  0  0  0  0  0  0  0  0  0  0  0
   24.5851   46.0181   50.9714 H   0  0  0  0  0  0  0  0  0  0  0  0
   24.0639   44.5159   51.3433 H   0  0  0  0  0  0  0  0  0  0  0  0
   27.1849   45.6808   52.4712 H   0  0  0  0  0  0  0  0  0  0  0  0
   27.8415   44.2843   51.9369 H   0  0  0  0  0  0  0  0  0  0  0  0
   27.0969   44.1552   54.2311 H   0  0  0  0  0  0  0  0  0  0  0  0
   26.4064   43.0274   53.2730 H   0  0  0  0  0  0  0  0  0  0  0  0
   22.8118   44.2823   54.1593 H   0  0  0  0  0  0  0  0  0  0  0  0
  1  2  2  0  0  0  0
  2  3  1  0  0  0  0
  3  4  1  0  0  0  0
  4  5  2  0  0  0  0
  5  6  1  0  0  0  0
  6  7  2  0  0  0  0
  7  8  1  0  0  0  0
  8  9  1  0  0  0  0
  9 10  1  0  0  0  0
  9 11  1  0  0  0  0
  9 12  1  0  0  0  0
  7 13  1  0  0  0  0
 13 14  2  0  0  0  0
  2 15  1  0  0  0  0
 15 16  2  0  0  0  0
 16 17  1  0  0  0  0
 17 18  2  0  0  0  0
 18 19  1  0  0  0  0
 19 20  1  0  0  0  0
 20 21  1  0  0  0  0
 21 22  1  0  0  0  0
 22 23  1  0  0  0  0
 23 24  1  0  0  0  0
 24 25  1  0  0  0  0
 25 26  1  0  0  0  0
 19 27  2  0  0  0  0
 14  4  1  0  0  0  0
 27 15  1  0  0  0  0
 26 21  1  0  0  0  0
  3 28  1  0  0  0  0
  5 29  1  0  0  0  0
  6 30  1  0  0  0  0
 13 31  1  0  0  0  0
 14 32  1  0  0  0  0
 16 33  1  0  0  0  0
 17 34  1  0  0  0  0
 18 35  1  0  0  0  0
 20 36  1  0  0  0  0
 20 37  1  0  0  0  0
 21 38  1  0  0  0  0
 22 39  1  0  0  0  0
 22 40  1  0  0  0  0
 23 41  1  0  0  0  0
 23 42  1  0  0  0  0
 25 43  1  0  0  0  0
 25 44  1  0  0  0  0
 26 45  1  0  0  0  0
 26 46  1  0  0  0  0
 27 47  1  0  0  0  0
M  CHG  1  21   1
M  END
> <BIOSOLVEIT.HYDE_ESTIMATED_AFFINITY_LOWER_BOUNDARY [nM]>
467.910157

> <BIOSOLVEIT.HYDE_ESTIMATED_AFFINITY_UPPER_BOUNDARY [nM]>
46489.640613

> <BIOSOLVEIT.HYDE_LIGAND_EFFICIENCY range: ++, +, 0, -, -->
-

> <BIOSOLVEIT.HYDE_LIGAND_LIPOPHILIC_EFFICIENCY range: ++, +, 0, -, -->
-

> <BIOSOLVEIT.INTER_CLASH range: red, yellow, green>
green

> <BIOSOLVEIT.INTRA_CLASH range: red, yellow, green>
yellow

> <BIOSOLVEIT.LOGP>
2.2526

> <BIOSOLVEIT.MOLECULAR WEIGHT>
381.372

> <BIOSOLVEIT.MOLECULE_CHECKSUM>
LTMwLjQzMDg7MS4xMjcwNw==

> <BIOSOLVEIT.TORSION_QUALITY range: red, yellow, green, not rotatable>
yellow

> <BIOSOLVEIT.TPSA>
52

$$$$
6HD6_FYH_3
foHydescor03222115253D 1   1.00000     0.00000     0
Hydescorer 1.1.0 fol007
 47 49  0  0  0  0            999 V2000
   21.6999   43.5688   53.3649 O   0  0  0  0  0  0  0  0  0  0  0  0
   20.8670   43.5920   54.3128 C   0  0  0  0  0  0  0  0  0  0  0  0
   19.7616   42.6724   54.3117 N   0  0  0  0  0  0  0  0  0  0  0  0
   19.1502   42.1600   53.1149 C   0  0  0  0  0  0  0  0  0  0  0  0
   19.9496   41.6244   52.1101 C   0  0  0  0  0  0  0  0  0  0  0  0
   19.3669   41.1262   50.9488 C   0  0  0  0  0  0  0  0  0  0  0  0
   17.9838   41.1725   50.8095 C   0  0  0  0  0  0  0  0  0  0  0  0
   17.4065   40.6933   49.6879 O   0  0  0  0  0  0  0  0  0  0  0  0
   17.0607   39.3292   49.4572 C   0  0  0  0  0  0  0  0  0  0  0  0
   16.1596   38.9257   50.4233 F   0  0  0  0  0  0  0  0  0  0  0  0
   16.4724   39.1902   48.2129 F   0  0  0  0  0  0  0  0  0  0  0  0
   18.1880   38.5314   49.5381 F   0  0  0  0  0  0  0  0  0  0  0  0
   17.1763   41.7070   51.8091 C   0  0  0  0  0  0  0  0  0  0  0  0
   17.7673   42.2024   52.9667 C   0  0  0  0  0  0  0  0  0  0  0  0
   21.0709   44.5342   55.4402 C   0  0  0  0  0  0  0  0  0  0  0  0
   21.4574   45.8458   55.1849 C   0  0  0  0  0  0  0  0  0  0  0  0
   21.6439   46.7154   56.2547 C   0  0  0  0  0  0  0  0  0  0  0  0
   21.4498   46.2901   57.5650 C   0  0  0  0  0  0  0  0  0  0  0  0
   21.0629   44.9738   57.7972 C   0  0  0  0  0  0  0  0  0  0  0  0
   20.8473   44.4980   59.2253 C   0  0  0  0  0  0  0  0  0  0  0  0
   19.4525   44.7174   59.6743 N   0  3  0  0  0  0  0  0  0  0  0  0
   19.4057   45.2453   61.0468 C   0  0  0  0  0  0  0  0  0  0  0  0
   17.9736   45.3943   61.5350 C   0  0  0  0  0  0  0  0  0  0  0  0
   17.0336   45.0108   60.5375 O   0  0  0  0  0  0  0  0  0  0  0  0
   17.2448   43.6914   60.0488 C   0  0  0  0  0  0  0  0  0  0  0  0
   18.6790   43.4683   59.5973 C   0  0  0  0  0  0  0  0  0  0  0  0
   20.8708   44.0876   56.7422 C   0  0  0  0  0  0  0  0  0  0  0  0
   19.3972   42.3720   55.1932 H   0  0  0  0  0  0  0  0  0  0  0  0
   20.9429   41.5975   52.2223 H   0  0  0  0  0  0  0  0  0  0  0  0
   19.9358   40.7395   50.2230 H   0  0  0  0  0  0  0  0  0  0  0  0
   16.1831   41.7346   51.6964 H   0  0  0  0  0  0  0  0  0  0  0  0
   17.1983   42.5891   53.6925 H   0  0  0  0  0  0  0  0  0  0  0  0
   21.5991   46.1592   54.2458 H   0  0  0  0  0  0  0  0  0  0  0  0
   21.9216   47.6599   56.0793 H   0  0  0  0  0  0  0  0  0  0  0  0
   21.5863   46.9210   58.3286 H   0  0  0  0  0  0  0  0  0  0  0  0
   21.4649   45.0003   59.8305 H   0  0  0  0  0  0  0  0  0  0  0  0
   21.0534   43.5207   59.2753 H   0  0  0  0  0  0  0  0  0  0  0  0
   19.0282   45.3876   59.0654 H   0  0  0  0  0  0  0  0  0  0  0  0
   19.8511   46.1405   61.0665 H   0  0  0  0  0  0  0  0  0  0  0  0
   19.8927   44.6173   61.6537 H   0  0  0  0  0  0  0  0  0  0  0  0
   17.8131   46.3502   61.7808 H   0  0  0  0  0  0  0  0  0  0  0  0
   17.8444   44.8167   62.3409 H   0  0  0  0  0  0  0  0  0  0  0  0
   16.6347   43.5343   59.2722 H   0  0  0  0  0  0  0  0  0  0  0  0
   17.0316   43.0403   60.7772 H   0  0  0  0  0  0  0  0  0  0  0  0
   18.6779   43.1414   58.6523 H   0  0  0  0  0  0  0  0  0  0  0  0
   19.1051   42.7822   60.1869 H   0  0  0  0  0  0  0  0  0  0  0  0
   20.5929   43.1431   56.9175 H   0  0  0  0  0  0  0  0  0  0  0  0
  1  2  2  0  0  0  0
  2  3  1  0  0  0  0
  3  4  1  0  0  0  0
  4  5  2  0  0  0  0
  5  6  1  0  0  0  0
  6  7  2  0  0  0  0
  7  8  1  0  0  0  0
  8  9  1  0  0  0  0
  9 10  1  0  0  0  0
  9 11  1  0  0  0  0
  9 12  1  0  0  0  0
  7 13  1  0  0  0  0
 13 14  2  0  0  0  0
  2 15  1  0  0  0  0
 15 16  2  0  0  0  0
 16 17  1  0  0  0  0
 17 18  2  0  0  0  0
 18 19  1  0  0  0  0
 19 20  1  0  0  0  0
 20 21  1  0  0  0  0
 21 22  1  0  0  0  0
 22 23  1  0  0  0  0
 23 24  1  0  0  0  0
 24 25  1  0  0  0  0
 25 26  1  0  0  0  0
 19 27  2  0  0  0  0
 14  4  1  0  0  0  0
 27 15  1  0  0  0  0
 26 21  1  0  0  0  0
  3 28  1  0  0  0  0
  5 29  1  0  0  0  0
  6 30  1  0  0  0  0
 13 31  1  0  0  0  0
 14 32  1  0  0  0  0
 16 33  1  0  0  0  0
 17 34  1  0  0  0  0
 18 35  1  0  0  0  0
 20 36  1  0  0  0  0
 20 37  1  0  0  0  0
 21 38  1  0  0  0  0
 22 39  1  0  0  0  0
 22 40  1  0  0  0  0
 23 41  1  0  0  0  0
 23 42  1  0  0  0  0
 25 43  1  0  0  0  0
 25 44  1  0  0  0  0
 26 45  1  0  0  0  0
 26 46  1  0  0  0  0
 27 47  1  0  0  0  0
M  CHG  1  21   1
M  END
> <BIOSOLVEIT.HYDE_ESTIMATED_AFFINITY_LOWER_BOUNDARY [nM]>
5.355705

> <BIOSOLVEIT.HYDE_ESTIMATED_AFFINITY_UPPER_BOUNDARY [nM]>
532.120916

> <BIOSOLVEIT.HYDE_LIGAND_EFFICIENCY range: ++, +, 0, -, -->
0

> <BIOSOLVEIT.HYDE_LIGAND_LIPOPHILIC_EFFICIENCY range: ++, +, 0, -, -->
+

> <BIOSOLVEIT.INTER_CLASH range: red, yellow, green>
green

> <BIOSOLVEIT.INTRA_CLASH range: red, yellow, green>
green

> <BIOSOLVEIT.LOGP>
2.2526

> <BIOSOLVEIT.MOLECULAR WEIGHT>
381.372

> <BIOSOLVEIT.MOLECULE_CHECKSUM>
LTQxLjUxMjsxLjUzNzQ4

> <BIOSOLVEIT.TORSION_QUALITY range: red, yellow, green, not rotatable>
red

> <BIOSOLVEIT.TPSA>
52

$$$$
6HD4_FYW_1
foHydescor03222115253D 1   1.00000     0.00000     0
Hydescorer 1.1.0 fol007
 50 53  0  0  0  0            999 V2000
   22.8225   43.3199   54.1956 O   0  0  0  0  0  0  0  0  0  0  0  0
   21.8986   43.7245   54.9541 C   0  0  0  0  0  0  0  0  0  0  0  0
   20.5841   43.1532   54.8426 N   0  0  0  0  0  0  0  0  0  0  0  0
   20.0389   42.6359   53.6161 C   0  0  0  0  0  0  0  0  0  0  0  0
   19.2782   41.4712   53.6397 C   0  0  0  0  0  0  0  0  0  0  0  0
   18.7466   40.9634   52.4582 C   0  0  0  0  0  0  0  0  0  0  0  0
   18.9867   41.6330   51.2630 C   0  0  0  0  0  0  0  0  0  0  0  0
   18.4774   41.1505   50.1101 O   0  0  0  0  0  0  0  0  0  0  0  0
   17.8030   39.9025   49.9661 C   0  0  0  0  0  0  0  0  0  0  0  0
   16.6798   39.8713   50.7732 F   0  0  0  0  0  0  0  0  0  0  0  0
   18.6513   38.8611   50.2976 F   0  0  0  0  0  0  0  0  0  0  0  0
   17.4100   39.7548   48.6501 F   0  0  0  0  0  0  0  0  0  0  0  0
   19.7469   42.7983   51.2298 C   0  0  0  0  0  0  0  0  0  0  0  0
   20.2741   43.2988   52.4156 C   0  0  0  0  0  0  0  0  0  0  0  0
   22.1970   44.7473   55.9857 C   0  0  0  0  0  0  0  0  0  0  0  0
   21.2056   45.5755   56.5022 C   0  0  0  0  0  0  0  0  0  0  0  0
   21.4921   46.4953   57.4358 N   0  0  0  0  0  0  0  0  0  0  0  0
   22.7390   46.6522   57.9052 C   0  0  0  0  0  0  0  0  0  0  0  0
   23.0029   47.6223   58.8798 N   0  0  0  0  0  0  0  0  0  0  0  0
   23.0822   47.3741   60.3238 C   0  0  0  0  0  0  0  0  0  0  0  0
   24.1979   48.3078   60.7427 C   0  0  0  0  0  0  0  0  0  0  0  0
   24.0283   49.5321   59.8551 C   0  0  2  0  0  0  0  0  0  0  0  0
   23.2684   50.5360   60.5122 O   0  0  0  0  0  0  0  0  0  0  0  0
   23.2514   49.0417   58.6467 C   0  0  0  0  0  0  0  0  0  0  0  0
   23.7699   45.8511   57.4237 C   0  0  0  0  0  0  0  0  0  0  0  0
   25.1299   45.9919   57.9070 C   0  0  0  0  0  0  0  0  0  0  0  0
   25.7000   45.0247   58.7276 C   0  0  0  0  0  0  0  0  0  0  0  0
   26.9599   45.1725   59.1617 N   0  0  0  0  0  0  0  0  0  0  0  0
   27.6910   46.2439   58.8200 C   0  0  0  0  0  0  0  0  0  0  0  0
   27.1646   47.1903   58.0291 N   0  0  0  0  0  0  0  0  0  0  0  0
   25.9110   47.0908   57.5669 C   0  0  0  0  0  0  0  0  0  0  0  0
   23.4983   44.8900   56.4557 C   0  0  0  0  0  0  0  0  0  0  0  0
   20.0162   43.1131   55.6647 H   0  0  0  0  0  0  0  0  0  0  0  0
   19.1134   40.9990   54.5057 H   0  0  0  0  0  0  0  0  0  0  0  0
   18.1984   40.1271   52.4684 H   0  0  0  0  0  0  0  0  0  0  0  0
   19.9122   43.2701   50.3637 H   0  0  0  0  0  0  0  0  0  0  0  0
   20.8221   44.1351   52.4053 H   0  0  0  0  0  0  0  0  0  0  0  0
   20.2659   45.4839   56.1728 H   0  0  0  0  0  0  0  0  0  0  0  0
   23.3146   46.4207   60.5164 H   0  0  0  0  0  0  0  0  0  0  0  0
   22.2233   47.6066   60.7801 H   0  0  0  0  0  0  0  0  0  0  0  0
   25.0900   47.8824   60.5904 H   0  0  0  0  0  0  0  0  0  0  0  0
   24.1071   48.5559   61.7072 H   0  0  0  0  0  0  0  0  0  0  0  0
   24.9194   49.8912   59.5777 H   0  0  0  0  0  0  0  0  0  0  0  0
   22.3597   50.1787   60.7277 H   0  0  0  0  0  0  0  0  0  0  0  0
   23.7887   49.1685   57.8128 H   0  0  0  0  0  0  0  0  0  0  0  0
   22.3867   49.5373   58.5645 H   0  0  0  0  0  0  0  0  0  0  0  0
   25.1704   44.2193   58.9937 H   0  0  0  0  0  0  0  0  0  0  0  0
   28.6286   46.3369   59.1549 H   0  0  0  0  0  0  0  0  0  0  0  0
   25.5371   47.8067   56.9774 H   0  0  0  0  0  0  0  0  0  0  0  0
   24.2304   44.3080   56.1016 H   0  0  0  0  0  0  0  0  0  0  0  0
  1  2  2  0  0  0  0
  2  3  1  0  0  0  0
  3  4  1  0  0  0  0
  4  5  2  0  0  0  0
  5  6  1  0  0  0  0
  6  7  2  0  0  0  0
  7  8  1  0  0  0  0
  8  9  1  0  0  0  0
  9 10  1  0  0  0  0
  9 11  1  0  0  0  0
  9 12  1  0  0  0  0
  7 13  1  0  0  0  0
 13 14  2  0  0  0  0
  2 15  1  0  0  0  0
 15 16  2  0  0  0  0
 16 17  1  0  0  0  0
 17 18  2  0  0  0  0
 18 19  1  0  0  0  0
 19 20  1  0  0  0  0
 20 21  1  0  0  0  0
 21 22  1  0  0  0  0
 22 23  1  0  0  0  0
 22 24  1  0  0  0  0
 18 25  1  0  0  0  0
 25 26  1  0  0  0  0
 26 27  2  0  0  0  0
 27 28  1  0  0  0  0
 28 29  2  0  0  0  0
 29 30  1  0  0  0  0
 30 31  2  0  0  0  0
 25 32  2  0  0  0  0
 14  4  1  0  0  0  0
 32 15  1  0  0  0  0
 24 19  1  0  0  0  0
 31 26  1  0  0  0  0
  3 33  1  0  0  0  0
  5 34  1  0  0  0  0
  6 35  1  0  0  0  0
 13 36  1  0  0  0  0
 14 37  1  0  0  0  0
 16 38  1  0  0  0  0
 20 39  1  0  0  0  0
 20 40  1  0  0  0  0
 21 41  1  0  0  0  0
 21 42  1  0  0  0  0
 22 43  1  0  0  0  0
 23 44  1  0  0  0  0
 24 45  1  0  0  0  0
 24 46  1  0  0  0  0
 27 47  1  0  0  0  0
 29 48  1  0  0  0  0
 31 49  1  0  0  0  0
 32 50  1  0  0  0  0
M  END
> <BIOSOLVEIT.HYDE_ESTIMATED_AFFINITY_LOWER_BOUNDARY [nM]>
191492.191529

> <BIOSOLVEIT.HYDE_ESTIMATED_AFFINITY_UPPER_BOUNDARY [nM]>
19025881.419891

> <BIOSOLVEIT.HYDE_LIGAND_EFFICIENCY range: ++, +, 0, -, -->
--

> <BIOSOLVEIT.HYDE_LIGAND_LIPOPHILIC_EFFICIENCY range: ++, +, 0, -, -->
--

> <BIOSOLVEIT.INTER_CLASH range: red, yellow, green>
green

> <BIOSOLVEIT.INTRA_CLASH range: red, yellow, green>
green

> <BIOSOLVEIT.LOGP>
3.2605

> <BIOSOLVEIT.MOLECULAR WEIGHT>
445.399

> <BIOSOLVEIT.MOLECULE_CHECKSUM>
LTE1LjUyMTU7MC40ODUwNDc=

> <BIOSOLVEIT.TORSION_QUALITY range: red, yellow, green, not rotatable>
yellow

> <BIOSOLVEIT.TPSA>
100.47

$$$$
2QOH_P3Y_1
foHydescor03222115253D 1   1.00000     0.00000     0
Hydescorer 1.1.0 fol007
 48 51  0  0  0  0            999 V2000
   23.1936   48.5151   58.3035 C   0  0  0  0  0  0  0  0  0  0  0  0
   22.5109   47.3124   58.6414 O   0  0  0  0  0  0  0  0  0  0  0  0
   22.5933   46.6932   59.8387 C   0  0  0  0  0  0  0  0  0  0  0  0
   23.2416   47.3453   60.8824 C   0  0  0  0  0  0  0  0  0  0  0  0
   23.3434   46.7340   62.1281 C   0  0  0  0  0  0  0  0  0  0  0  0
   22.7974   45.4706   62.3298 C   0  0  0  0  0  0  0  0  0  0  0  0
   22.1486   44.8182   61.2863 C   0  0  0  0  0  0  0  0  0  0  0  0
   22.0470   45.4293   60.0405 C   0  0  0  0  0  0  0  0  0  0  0  0
   21.3710   44.7487   58.9519 C   0  0  0  0  0  0  0  0  0  0  0  0
   20.1028   44.2507   59.0069 C   0  0  0  0  0  0  0  0  0  0  0  0
   19.8423   43.6923   57.7907 N   0  0  0  0  0  0  0  0  0  0  0  0
   20.9380   43.8330   56.9727 C   0  0  0  0  0  0  0  0  0  0  0  0
   21.2155   43.4748   55.7084 N   0  0  0  0  0  0  0  0  0  0  0  0
   22.3966   43.7468   55.1305 C   0  0  0  0  0  0  0  0  0  0  0  0
   23.4054   44.4196   55.8147 C   0  0  0  0  0  0  0  0  0  0  0  0
   24.6930   44.7353   55.2273 C   0  0  0  0  0  0  0  0  0  0  0  0
   25.8416   44.8303   56.0060 C   0  0  0  0  0  0  0  0  0  0  0  0
   27.0244   45.1230   55.4449 N   0  0  0  0  0  0  0  0  0  0  0  0
   27.1397   45.3319   54.1248 C   0  0  0  0  0  0  0  0  0  0  0  0
   26.0235   45.2493   53.2996 C   0  0  0  0  0  0  0  0  0  0  0  0
   26.1283   45.4759   51.8424 C   0  0  0  0  0  0  0  0  0  0  0  0
   26.0353   44.4852   51.0661 O   0  0  0  0  0  0  0  0  0  0  0  0
   26.3427   46.7914   51.2924 N   0  0  0  0  0  0  0  0  0  0  0  0
   26.5500   46.9337   49.8491 C   0  0  0  0  0  0  0  0  0  0  0  0
   26.5136   47.9482   52.1781 C   0  0  0  0  0  0  0  0  0  0  0  0
   24.7851   44.9474   53.8559 C   0  0  0  0  0  0  0  0  0  0  0  0
   23.1531   44.8042   57.1251 C   0  0  0  0  0  0  0  0  0  0  0  0
   21.9133   44.4961   57.6704 C   0  0  0  0  0  0  0  0  0  0  0  0
   22.9711   48.7717   57.3630 H   0  0  0  0  0  0  0  0  0  0  0  0
   22.9093   49.2455   58.9244 H   0  0  0  0  0  0  0  0  0  0  0  0
   24.1800   48.3727   58.3856 H   0  0  0  0  0  0  0  0  0  0  0  0
   23.6344   48.2534   60.7374 H   0  0  0  0  0  0  0  0  0  0  0  0
   23.8092   47.2029   62.8784 H   0  0  0  0  0  0  0  0  0  0  0  0
   22.8711   45.0313   63.2251 H   0  0  0  0  0  0  0  0  0  0  0  0
   21.7554   43.9103   61.4316 H   0  0  0  0  0  0  0  0  0  0  0  0
   19.4822   44.2878   59.7901 H   0  0  0  0  0  0  0  0  0  0  0  0
   18.9843   43.2479   57.5329 H   0  0  0  0  0  0  0  0  0  0  0  0
   22.5554   43.4594   54.1860 H   0  0  0  0  0  0  0  0  0  0  0  0
   25.7852   44.6791   56.9928 H   0  0  0  0  0  0  0  0  0  0  0  0
   28.0335   45.5483   53.7320 H   0  0  0  0  0  0  0  0  0  0  0  0
   26.6834   47.8990   49.6251 H   0  0  0  0  0  0  0  0  0  0  0  0
   27.3589   46.4132   49.5757 H   0  0  0  0  0  0  0  0  0  0  0  0
   25.7493   46.5859   49.3614 H   0  0  0  0  0  0  0  0  0  0  0  0
   26.6504   48.7720   51.6279 H   0  0  0  0  0  0  0  0  0  0  0  0
   25.6969   48.0578   52.7448 H   0  0  0  0  0  0  0  0  0  0  0  0
   27.3098   47.8036   52.7655 H   0  0  0  0  0  0  0  0  0  0  0  0
   23.9717   44.8837   53.2776 H   0  0  0  0  0  0  0  0  0  0  0  0
   23.8444   45.2891   57.6608 H   0  0  0  0  0  0  0  0  0  0  0  0
  1  2  1  0  0  0  0
  2  3  1  0  0  0  0
  3  4  2  0  0  0  0
  4  5  1  0  0  0  0
  5  6  2  0  0  0  0
  6  7  1  0  0  0  0
  7  8  2  0  0  0  0
  8  9  1  0  0  0  0
  9 10  2  0  0  0  0
 10 11  1  0  0  0  0
 11 12  1  0  0  0  0
 12 13  2  0  0  0  0
 13 14  1  0  0  0  0
 14 15  2  0  0  0  0
 15 16  1  0  0  0  0
 16 17  2  0  0  0  0
 17 18  1  0  0  0  0
 18 19  2  0  0  0  0
 19 20  1  0  0  0  0
 20 21  1  0  0  0  0
 21 22  2  0  0  0  0
 21 23  1  0  0  0  0
 23 24  1  0  0  0  0
 23 25  1  0  0  0  0
 20 26  2  0  0  0  0
 15 27  1  0  0  0  0
 27 28  2  0  0  0  0
  8  3  1  0  0  0  0
 28  9  1  0  0  0  0
 28 12  1  0  0  0  0
 26 16  1  0  0  0  0
  1 29  1  0  0  0  0
  1 30  1  0  0  0  0
  1 31  1  0  0  0  0
  4 32  1  0  0  0  0
  5 33  1  0  0  0  0
  6 34  1  0  0  0  0
  7 35  1  0  0  0  0
 10 36  1  0  0  0  0
 11 37  1  0  0  0  0
 14 38  1  0  0  0  0
 17 39  1  0  0  0  0
 19 40  1  0  0  0  0
 24 41  1  0  0  0  0
 24 42  1  0  0  0  0
 24 43  1  0  0  0  0
 25 44  1  0  0  0  0
 25 45  1  0  0  0  0
 25 46  1  0  0  0  0
 26 47  1  0  0  0  0
 27 48  1  0  0  0  0
M  END
> <BIOSOLVEIT.HYDE_ESTIMATED_AFFINITY_LOWER_BOUNDARY [nM]>
1808774.063471

> <BIOSOLVEIT.HYDE_ESTIMATED_AFFINITY_UPPER_BOUNDARY [nM]>
179712397.524436

> <BIOSOLVEIT.HYDE_LIGAND_EFFICIENCY range: ++, +, 0, -, -->
--

> <BIOSOLVEIT.HYDE_LIGAND_LIPOPHILIC_EFFICIENCY range: ++, +, 0, -, -->
--

> <BIOSOLVEIT.INTER_CLASH range: red, yellow, green>
green

> <BIOSOLVEIT.INTRA_CLASH range: red, yellow, green>
green

> <BIOSOLVEIT.LOGP>
4.0023

> <BIOSOLVEIT.MOLECULAR WEIGHT>
372.426

> <BIOSOLVEIT.MOLECULE_CHECKSUM>
LTkuOTU0ODg7MC4zNTU1MzE=

> <BIOSOLVEIT.TORSION_QUALITY range: red, yellow, green, not rotatable>
green

> <BIOSOLVEIT.TPSA>
71.11

$$$$
2QOH_P3Y_2
foHydescor03222115253D 1   1.00000     0.00000     0
Hydescorer 1.1.0 fol007
 48 51  0  0  0  0            999 V2000
   23.4088   47.7724   57.7419 C   0  0  0  0  0  0  0  0  0  0  0  0
   22.8131   46.6384   57.1206 O   0  0  0  0  0  0  0  0  0  0  0  0
   22.0141   45.7497   57.7495 C   0  0  0  0  0  0  0  0  0  0  0  0
   21.6221   46.0157   59.0572 C   0  0  0  0  0  0  0  0  0  0  0  0
   20.7991   45.1198   59.7326 C   0  0  0  0  0  0  0  0  0  0  0  0
   20.3687   43.9581   59.1003 C   0  0  0  0  0  0  0  0  0  0  0  0
   20.7602   43.6918   57.7921 C   0  0  0  0  0  0  0  0  0  0  0  0
   21.5833   44.5875   57.1168 C   0  0  0  0  0  0  0  0  0  0  0  0
   21.9923   44.3097   55.7527 C   0  0  0  0  0  0  0  0  0  0  0  0
   21.1425   44.0644   54.7148 C   0  0  0  0  0  0  0  0  0  0  0  0
   21.9145   43.8523   53.6111 N   0  0  0  0  0  0  0  0  0  0  0  0
   23.2428   43.9594   53.9480 C   0  0  0  0  0  0  0  0  0  0  0  0
   24.3943   43.8460   53.2662 N   0  0  0  0  0  0  0  0  0  0  0  0
   25.5915   44.0087   53.8518 C   0  0  0  0  0  0  0  0  0  0  0  0
   25.7060   44.3055   55.2074 C   0  0  0  0  0  0  0  0  0  0  0  0
   26.9811   44.4919   55.8791 C   0  0  0  0  0  0  0  0  0  0  0  0
   28.1788   44.5017   55.1718 C   0  0  0  0  0  0  0  0  0  0  0  0
   29.3464   44.6753   55.8090 N   0  0  0  0  0  0  0  0  0  0  0  0
   29.3992   44.8447   57.1386 C   0  0  0  0  0  0  0  0  0  0  0  0
   28.2319   44.8433   57.8948 C   0  0  0  0  0  0  0  0  0  0  0  0
   28.2670   45.0246   59.3327 C   0  0  0  0  0  0  0  0  0  0  0  0
   29.1794   44.4568   59.9936 O   0  0  0  0  0  0  0  0  0  0  0  0
   27.2846   45.8248   60.0209 N   0  0  0  0  0  0  0  0  0  0  0  0
   27.1864   47.2532   59.7102 C   0  0  0  0  0  0  0  0  0  0  0  0
   26.5081   45.2576   61.1288 C   0  0  0  0  0  0  0  0  0  0  0  0
   27.0080   44.6651   57.2588 C   0  0  0  0  0  0  0  0  0  0  0  0
   24.5350   44.4288   55.9437 C   0  0  0  0  0  0  0  0  0  0  0  0
   23.3255   44.2504   55.2845 C   0  0  0  0  0  0  0  0  0  0  0  0
   23.9537   48.2732   57.0693 H   0  0  0  0  0  0  0  0  0  0  0  0
   22.6923   48.3700   58.1020 H   0  0  0  0  0  0  0  0  0  0  0  0
   23.9987   47.4706   58.4909 H   0  0  0  0  0  0  0  0  0  0  0  0
   21.9317   46.8507   59.5121 H   0  0  0  0  0  0  0  0  0  0  0  0
   20.5170   45.3113   60.6727 H   0  0  0  0  0  0  0  0  0  0  0  0
   19.7778   43.3141   59.5861 H   0  0  0  0  0  0  0  0  0  0  0  0
   20.4501   42.8570   57.3372 H   0  0  0  0  0  0  0  0  0  0  0  0
   20.1436   44.0440   54.7554 H   0  0  0  0  0  0  0  0  0  0  0  0
   21.5671   43.6495   52.6956 H   0  0  0  0  0  0  0  0  0  0  0  0
   26.4209   43.9143   53.3012 H   0  0  0  0  0  0  0  0  0  0  0  0
   28.1693   44.3783   54.1794 H   0  0  0  0  0  0  0  0  0  0  0  0
   30.2830   44.9726   57.5888 H   0  0  0  0  0  0  0  0  0  0  0  0
   26.4644   47.6662   60.2653 H   0  0  0  0  0  0  0  0  0  0  0  0
   28.0584   47.6990   59.9122 H   0  0  0  0  0  0  0  0  0  0  0  0
   26.9693   47.3694   58.7409 H   0  0  0  0  0  0  0  0  0  0  0  0
   25.8798   45.9496   61.4841 H   0  0  0  0  0  0  0  0  0  0  0  0
   25.9860   44.4701   60.8011 H   0  0  0  0  0  0  0  0  0  0  0  0
   27.1292   44.9663   61.8563 H   0  0  0  0  0  0  0  0  0  0  0  0
   26.1586   44.6617   57.7865 H   0  0  0  0  0  0  0  0  0  0  0  0
   24.5619   44.6401   56.9208 H   0  0  0  0  0  0  0  0  0  0  0  0
  1  2  1  0  0  0  0
  2  3  1  0  0  0  0
  3  4  2  0  0  0  0
  4  5  1  0  0  0  0
  5  6  2  0  0  0  0
  6  7  1  0  0  0  0
  7  8  2  0  0  0  0
  8  9  1  0  0  0  0
  9 10  2  0  0  0  0
 10 11  1  0  0  0  0
 11 12  1  0  0  0  0
 12 13  2  0  0  0  0
 13 14  1  0  0  0  0
 14 15  2  0  0  0  0
 15 16  1  0  0  0  0
 16 17  2  0  0  0  0
 17 18  1  0  0  0  0
 18 19  2  0  0  0  0
 19 20  1  0  0  0  0
 20 21  1  0  0  0  0
 21 22  2  0  0  0  0
 21 23  1  0  0  0  0
 23 24  1  0  0  0  0
 23 25  1  0  0  0  0
 20 26  2  0  0  0  0
 15 27  1  0  0  0  0
 27 28  2  0  0  0  0
  8  3  1  0  0  0  0
 28  9  1  0  0  0  0
 28 12  1  0  0  0  0
 26 16  1  0  0  0  0
  1 29  1  0  0  0  0
  1 30  1  0  0  0  0
  1 31  1  0  0  0  0
  4 32  1  0  0  0  0
  5 33  1  0  0  0  0
  6 34  1  0  0  0  0
  7 35  1  0  0  0  0
 10 36  1  0  0  0  0
 11 37  1  0  0  0  0
 14 38  1  0  0  0  0
 17 39  1  0  0  0  0
 19 40  1  0  0  0  0
 24 41  1  0  0  0  0
 24 42  1  0  0  0  0
 24 43  1  0  0  0  0
 25 44  1  0  0  0  0
 25 45  1  0  0  0  0
 25 46  1  0  0  0  0
 26 47  1  0  0  0  0
 27 48  1  0  0  0  0
M  END
> <BIOSOLVEIT.HYDE_ESTIMATED_AFFINITY_LOWER_BOUNDARY [nM]>
2483956963.413734

> <BIOSOLVEIT.HYDE_ESTIMATED_AFFINITY_UPPER_BOUNDARY [nM]>
246795810631.014435

> <BIOSOLVEIT.HYDE_LIGAND_EFFICIENCY range: ++, +, 0, -, -->
--

> <BIOSOLVEIT.HYDE_LIGAND_LIPOPHILIC_EFFICIENCY range: ++, +, 0, -, -->
--

> <BIOSOLVEIT.INTER_CLASH range: red, yellow, green>
green

> <BIOSOLVEIT.INTRA_CLASH range: red, yellow, green>
green

> <BIOSOLVEIT.LOGP>
4.0023

> <BIOSOLVEIT.MOLECULAR WEIGHT>
372.426

> <BIOSOLVEIT.MOLECULE_CHECKSUM>
Ny45NTU0OTsw

> <BIOSOLVEIT.TORSION_QUALITY range: red, yellow, green, not rotatable>
yellow

> <BIOSOLVEIT.TPSA>
71.11

$$$$
2QOH_P3Y_3
foHydescor03222115253D 1   1.00000     0.00000     0
Hydescorer 1.1.0 fol007
 48 51  0  0  0  0            999 V2000
   23.2721   48.4777   58.2020 C   0  0  0  0  0  0  0  0  0  0  0  0
   22.5680   47.2895   58.5477 O   0  0  0  0  0  0  0  0  0  0  0  0
   22.6422   46.6749   59.7477 C   0  0  0  0  0  0  0  0  0  0  0  0
   23.2949   47.3250   60.7898 C   0  0  0  0  0  0  0  0  0  0  0  0
   23.3884   46.7183   62.0383 C   0  0  0  0  0  0  0  0  0  0  0  0
   22.8293   45.4614   62.2446 C   0  0  0  0  0  0  0  0  0  0  0  0
   22.1759   44.8109   61.2028 C   0  0  0  0  0  0  0  0  0  0  0  0
   22.0827   45.4174   59.9542 C   0  0  0  0  0  0  0  0  0  0  0  0
   21.4018   44.7389   58.8674 C   0  0  0  0  0  0  0  0  0  0  0  0
   20.1294   44.2518   58.9230 C   0  0  0  0  0  0  0  0  0  0  0  0
   19.8652   43.6916   57.7084 N   0  0  0  0  0  0  0  0  0  0  0  0
   20.9627   43.8201   56.8909 C   0  0  0  0  0  0  0  0  0  0  0  0
   21.2381   43.4551   55.6280 N   0  0  0  0  0  0  0  0  0  0  0  0
   22.4220   43.7151   55.0503 C   0  0  0  0  0  0  0  0  0  0  0  0
   23.4360   44.3817   55.7330 C   0  0  0  0  0  0  0  0  0  0  0  0
   24.7267   44.6843   55.1456 C   0  0  0  0  0  0  0  0  0  0  0  0
   25.8792   44.7497   55.9217 C   0  0  0  0  0  0  0  0  0  0  0  0
   27.0649   45.0309   55.3606 N   0  0  0  0  0  0  0  0  0  0  0  0
   27.1793   45.2560   54.0433 C   0  0  0  0  0  0  0  0  0  0  0  0
   26.0592   45.2032   53.2207 C   0  0  0  0  0  0  0  0  0  0  0  0
   26.1633   45.4482   51.7665 C   0  0  0  0  0  0  0  0  0  0  0  0
   26.0254   44.4743   50.9758 O   0  0  0  0  0  0  0  0  0  0  0  0
   26.4265   46.7625   51.2353 N   0  0  0  0  0  0  0  0  0  0  0  0
   26.6392   46.9177   49.7940 C   0  0  0  0  0  0  0  0  0  0  0  0
   26.6400   47.8995   52.1374 C   0  0  0  0  0  0  0  0  0  0  0  0
   24.8180   44.9138   53.7771 C   0  0  0  0  0  0  0  0  0  0  0  0
   23.1859   44.7729   57.0419 C   0  0  0  0  0  0  0  0  0  0  0  0
   21.9431   44.4773   57.5872 C   0  0  0  0  0  0  0  0  0  0  0  0
   23.0518   48.7338   57.2608 H   0  0  0  0  0  0  0  0  0  0  0  0
   23.0030   49.2164   58.8201 H   0  0  0  0  0  0  0  0  0  0  0  0
   24.2559   48.3176   58.2823 H   0  0  0  0  0  0  0  0  0  0  0  0
   23.6972   48.2284   60.6416 H   0  0  0  0  0  0  0  0  0  0  0  0
   23.8575   47.1858   62.7875 H   0  0  0  0  0  0  0  0  0  0  0  0
   22.8970   45.0253   63.1420 H   0  0  0  0  0  0  0  0  0  0  0  0
   21.7733   43.9077   61.3514 H   0  0  0  0  0  0  0  0  0  0  0  0
   19.5084   44.2970   59.7055 H   0  0  0  0  0  0  0  0  0  0  0  0
   19.0037   43.2536   57.4513 H   0  0  0  0  0  0  0  0  0  0  0  0
   22.5792   43.4229   54.1070 H   0  0  0  0  0  0  0  0  0  0  0  0
   25.8234   44.5858   56.9066 H   0  0  0  0  0  0  0  0  0  0  0  0
   28.0753   45.4631   53.6504 H   0  0  0  0  0  0  0  0  0  0  0  0
   26.8084   47.8805   49.5838 H   0  0  0  0  0  0  0  0  0  0  0  0
   27.4283   46.3714   49.5128 H   0  0  0  0  0  0  0  0  0  0  0  0
   25.8262   46.6069   49.3017 H   0  0  0  0  0  0  0  0  0  0  0  0
   26.8075   48.7253   51.5989 H   0  0  0  0  0  0  0  0  0  0  0  0
   25.8279   48.0311   52.7058 H   0  0  0  0  0  0  0  0  0  0  0  0
   27.4303   47.7170   52.7223 H   0  0  0  0  0  0  0  0  0  0  0  0
   24.0018   44.8714   53.2007 H   0  0  0  0  0  0  0  0  0  0  0  0
   23.8808   45.2537   57.5765 H   0  0  0  0  0  0  0  0  0  0  0  0
  1  2  1  0  0  0  0
  2  3  1  0  0  0  0
  3  4  2  0  0  0  0
  4  5  1  0  0  0  0
  5  6  2  0  0  0  0
  6  7  1  0  0  0  0
  7  8  2  0  0  0  0
  8  9  1  0  0  0  0
  9 10  2  0  0  0  0
 10 11  1  0  0  0  0
 11 12  1  0  0  0  0
 12 13  2  0  0  0  0
 13 14  1  0  0  0  0
 14 15  2  0  0  0  0
 15 16  1  0  0  0  0
 16 17  2  0  0  0  0
 17 18  1  0  0  0  0
 18 19  2  0  0  0  0
 19 20  1  0  0  0  0
 20 21  1  0  0  0  0
 21 22  2  0  0  0  0
 21 23  1  0  0  0  0
 23 24  1  0  0  0  0
 23 25  1  0  0  0  0
 20 26  2  0  0  0  0
 15 27  1  0  0  0  0
 27 28  2  0  0  0  0
  8  3  1  0  0  0  0
 28  9  1  0  0  0  0
 28 12  1  0  0  0  0
 26 16  1  0  0  0  0
  1 29  1  0  0  0  0
  1 30  1  0  0  0  0
  1 31  1  0  0  0  0
  4 32  1  0  0  0  0
  5 33  1  0  0  0  0
  6 34  1  0  0  0  0
  7 35  1  0  0  0  0
 10 36  1  0  0  0  0
 11 37  1  0  0  0  0
 14 38  1  0  0  0  0
 17 39  1  0  0  0  0
 19 40  1  0  0  0  0
 24 41  1  0  0  0  0
 24 42  1  0  0  0  0
 24 43  1  0  0  0  0
 25 44  1  0  0  0  0
 25 45  1  0  0  0  0
 25 46  1  0  0  0  0
 26 47  1  0  0  0  0
 27 48  1  0  0  0  0
M  END
> <BIOSOLVEIT.HYDE_ESTIMATED_AFFINITY_LOWER_BOUNDARY [nM]>
1901163.508373

> <BIOSOLVEIT.HYDE_ESTIMATED_AFFINITY_UPPER_BOUNDARY [nM]>
188891835.125095

> <BIOSOLVEIT.HYDE_LIGAND_EFFICIENCY range: ++, +, 0, -, -->
--

> <BIOSOLVEIT.HYDE_LIGAND_LIPOPHILIC_EFFICIENCY range: ++, +, 0, -, -->
--

> <BIOSOLVEIT.INTER_CLASH range: red, yellow, green>
green

> <BIOSOLVEIT.INTRA_CLASH range: red, yellow, green>
green

> <BIOSOLVEIT.LOGP>
4.0023

> <BIOSOLVEIT.MOLECULAR WEIGHT>
372.426

> <BIOSOLVEIT.MOLECULE_CHECKSUM>
LTkuODMxMzg7MC4zNTExMjE=

> <BIOSOLVEIT.TORSION_QUALITY range: red, yellow, green, not rotatable>
green

> <BIOSOLVEIT.TPSA>
71.11

$$$$
3MS9_MS9_1
foHydescor03222115253D 1   1.00000     0.00000     0
Hydescorer 1.1.0 fol007
 20 20  0  0  0  0            999 V2000
   21.4114   45.3481   57.3340 C   0  0  0  0  0  0  0  0  0  0  0  0
   20.6334   44.6649   56.3586 O   0  0  0  0  0  0  0  0  0  0  0  0
   21.0860   44.4408   55.0538 C   0  0  0  0  0  0  0  0  0  0  0  0
   22.2117   44.8801   54.6915 O   0  0  0  0  0  0  0  0  0  0  0  0
   20.2262   43.7546   54.1088 C   0  0  0  0  0  0  0  0  0  0  0  0
   20.7779   43.3003   52.9150 C   0  0  0  0  0  0  0  0  0  0  0  0
   19.9803   42.6380   51.9874 C   0  0  0  0  0  0  0  0  0  0  0  0
   18.6319   42.4364   52.2647 C   0  0  0  0  0  0  0  0  0  0  0  0
   17.6063   41.5898   51.0811 Cl  0  0  0  0  0  0  0  0  0  0  0  0
   18.0736   42.8883   53.4561 C   0  0  0  0  0  0  0  0  0  0  0  0
   18.8766   43.5497   54.3801 C   0  0  0  0  0  0  0  0  0  0  0  0
   18.2974   43.9971   55.5739 N   0  0  0  0  0  0  0  0  0  0  0  0
   20.9010   45.3974   58.1926 H   0  0  0  0  0  0  0  0  0  0  0  0
   22.2678   44.8540   57.4833 H   0  0  0  0  0  0  0  0  0  0  0  0
   21.6121   46.2734   57.0120 H   0  0  0  0  0  0  0  0  0  0  0  0
   21.7481   43.4498   52.7237 H   0  0  0  0  0  0  0  0  0  0  0  0
   20.3729   42.3095   51.1283 H   0  0  0  0  0  0  0  0  0  0  0  0
   17.1035   42.7390   53.6469 H   0  0  0  0  0  0  0  0  0  0  0  0
   18.7193   44.7466   56.0842 H   0  0  0  0  0  0  0  0  0  0  0  0
   17.4619   43.5673   55.9162 H   0  0  0  0  0  0  0  0  0  0  0  0
  1  2  1  0  0  0  0
  2  3  1  0  0  0  0
  3  4  2  0  0  0  0
  3  5  1  0  0  0  0
  5  6  2  0  0  0  0
  6  7  1  0  0  0  0
  7  8  2  0  0  0  0
  8  9  1  0  0  0  0
  8 10  1  0  0  0  0
 10 11  2  0  0  0  0
 11 12  1  0  0  0  0
 11  5  1  0  0  0  0
  1 13  1  0  0  0  0
  1 14  1  0  0  0  0
  1 15  1  0  0  0  0
  6 16  1  0  0  0  0
  7 17  1  0  0  0  0
 10 18  1  0  0  0  0
 12 19  1  0  0  0  0
 12 20  1  0  0  0  0
M  END
> <BIOSOLVEIT.HYDE_ESTIMATED_AFFINITY_LOWER_BOUNDARY [nM]>
14799.146214

> <BIOSOLVEIT.HYDE_ESTIMATED_AFFINITY_UPPER_BOUNDARY [nM]>
1470382.675800

> <BIOSOLVEIT.HYDE_LIGAND_EFFICIENCY range: ++, +, 0, -, -->
+

> <BIOSOLVEIT.HYDE_LIGAND_LIPOPHILIC_EFFICIENCY range: ++, +, 0, -, -->
-

> <BIOSOLVEIT.INTER_CLASH range: red, yellow, green>
green

> <BIOSOLVEIT.INTRA_CLASH range: red, yellow, green>
green

> <BIOSOLVEIT.LOGP>
1.7088

> <BIOSOLVEIT.MOLECULAR WEIGHT>
185.609

> <BIOSOLVEIT.MOLECULE_CHECKSUM>
LTIxLjg2ODM7MS44MjIzNg==

> <BIOSOLVEIT.TORSION_QUALITY range: red, yellow, green, not rotatable>
green

> <BIOSOLVEIT.TPSA>
52.32

$$$$
3MS9_MS9_2
foHydescor03222115253D 1   1.00000     0.00000     0
Hydescorer 1.1.0 fol007
 20 20  0  0  0  0            999 V2000
   23.1283   45.5735   55.8035 C   0  0  0  0  0  0  0  0  0  0  0  0
   22.2786   44.9253   54.8647 O   0  0  0  0  0  0  0  0  0  0  0  0
   20.9885   44.4912   55.1882 C   0  0  0  0  0  0  0  0  0  0  0  0
   20.5387   44.6613   56.3545 O   0  0  0  0  0  0  0  0  0  0  0  0
   20.2002   43.7925   54.1914 C   0  0  0  0  0  0  0  0  0  0  0  0
   20.8327   43.3469   53.0349 C   0  0  0  0  0  0  0  0  0  0  0  0
   20.1050   42.6731   52.0594 C   0  0  0  0  0  0  0  0  0  0  0  0
   18.7450   42.4513   52.2514 C   0  0  0  0  0  0  0  0  0  0  0  0
   17.8087   41.5898   51.0061 Cl  0  0  0  0  0  0  0  0  0  0  0  0
   18.1062   42.8943   53.4051 C   0  0  0  0  0  0  0  0  0  0  0  0
   18.8394   43.5673   54.3773 C   0  0  0  0  0  0  0  0  0  0  0  0
   18.1796   44.0056   55.5321 N   0  0  0  0  0  0  0  0  0  0  0  0
   23.9991   45.7974   55.3658 H   0  0  0  0  0  0  0  0  0  0  0  0
   22.6909   46.4134   56.1246 H   0  0  0  0  0  0  0  0  0  0  0  0
   23.2924   44.9652   56.5801 H   0  0  0  0  0  0  0  0  0  0  0  0
   21.8106   43.5110   52.9050 H   0  0  0  0  0  0  0  0  0  0  0  0
   20.5558   42.3508   51.2269 H   0  0  0  0  0  0  0  0  0  0  0  0
   17.1283   42.7304   53.5345 H   0  0  0  0  0  0  0  0  0  0  0  0
   18.6325   44.6435   56.1551 H   0  0  0  0  0  0  0  0  0  0  0  0
   17.2556   43.6809   55.7337 H   0  0  0  0  0  0  0  0  0  0  0  0
  1  2  1  0  0  0  0
  2  3  1  0  0  0  0
  3  4  2  0  0  0  0
  3  5  1  0  0  0  0
  5  6  2  0  0  0  0
  6  7  1  0  0  0  0
  7  8  2  0  0  0  0
  8  9  1  0  0  0  0
  8 10  1  0  0  0  0
 10 11  2  0  0  0  0
 11 12  1  0  0  0  0
 11  5  1  0  0  0  0
  1 13  1  0  0  0  0
  1 14  1  0  0  0  0
  1 15  1  0  0  0  0
  6 16  1  0  0  0  0
  7 17  1  0  0  0  0
 10 18  1  0  0  0  0
 12 19  1  0  0  0  0
 12 20  1  0  0  0  0
M  END
> <BIOSOLVEIT.HYDE_ESTIMATED_AFFINITY_LOWER_BOUNDARY [nM]>
22809.658414

> <BIOSOLVEIT.HYDE_ESTIMATED_AFFINITY_UPPER_BOUNDARY [nM]>
2266274.424807

> <BIOSOLVEIT.HYDE_LIGAND_EFFICIENCY range: ++, +, 0, -, -->
+

> <BIOSOLVEIT.HYDE_LIGAND_LIPOPHILIC_EFFICIENCY range: ++, +, 0, -, -->
--

> <BIOSOLVEIT.INTER_CLASH range: red, yellow, green>
green

> <BIOSOLVEIT.INTRA_CLASH range: red, yellow, green>
green

> <BIOSOLVEIT.LOGP>
1.7088

> <BIOSOLVEIT.MOLECULAR WEIGHT>
185.609

> <BIOSOLVEIT.MOLECULE_CHECKSUM>
LTIwLjc5NTk7MS43MzI5OQ==

> <BIOSOLVEIT.TORSION_QUALITY range: red, yellow, green, not rotatable>
green

> <BIOSOLVEIT.TPSA>
52.32

$$$$
3MS9_MS9_3
foHydescor03222115253D 1   1.00000     0.00000     0
Hydescorer 1.1.0 fol007
 20 20  0  0  0  0            999 V2000
   21.9672   44.5460   57.5481 C   0  0  0  0  0  0  0  0  0  0  0  0
   21.3006   43.8928   56.4746 O   0  0  0  0  0  0  0  0  0  0  0  0
   21.0512   44.5185   55.2483 C   0  0  0  0  0  0  0  0  0  0  0  0
   21.4599   45.6945   55.0446 O   0  0  0  0  0  0  0  0  0  0  0  0
   20.2693   43.8276   54.2411 C   0  0  0  0  0  0  0  0  0  0  0  0
   20.9030   43.4160   53.0728 C   0  0  0  0  0  0  0  0  0  0  0  0
   20.1813   42.7504   52.0872 C   0  0  0  0  0  0  0  0  0  0  0  0
   18.8261   42.5026   52.2811 C   0  0  0  0  0  0  0  0  0  0  0  0
   17.8976   41.6515   51.0230 Cl  0  0  0  0  0  0  0  0  0  0  0  0
   18.1861   42.9115   53.4467 C   0  0  0  0  0  0  0  0  0  0  0  0
   18.9133   43.5764   54.4290 C   0  0  0  0  0  0  0  0  0  0  0  0
   18.2524   43.9803   55.5956 N   0  0  0  0  0  0  0  0  0  0  0  0
   22.0398   43.9207   58.3251 H   0  0  0  0  0  0  0  0  0  0  0  0
   22.8828   44.8204   57.2542 H   0  0  0  0  0  0  0  0  0  0  0  0
   21.4475   45.3562   57.8195 H   0  0  0  0  0  0  0  0  0  0  0  0
   21.8774   43.5987   52.9416 H   0  0  0  0  0  0  0  0  0  0  0  0
   20.6330   42.4526   51.2461 H   0  0  0  0  0  0  0  0  0  0  0  0
   17.2117   42.7290   53.5774 H   0  0  0  0  0  0  0  0  0  0  0  0
   18.5829   44.7723   56.1089 H   0  0  0  0  0  0  0  0  0  0  0  0
   17.4499   43.4767   55.9155 H   0  0  0  0  0  0  0  0  0  0  0  0
  1  2  1  0  0  0  0
  2  3  1  0  0  0  0
  3  4  2  0  0  0  0
  3  5  1  0  0  0  0
  5  6  2  0  0  0  0
  6  7  1  0  0  0  0
  7  8  2  0  0  0  0
  8  9  1  0  0  0  0
  8 10  1  0  0  0  0
 10 11  2  0  0  0  0
 11 12  1  0  0  0  0
 11  5  1  0  0  0  0
  1 13  1  0  0  0  0
  1 14  1  0  0  0  0
  1 15  1  0  0  0  0
  6 16  1  0  0  0  0
  7 17  1  0  0  0  0
 10 18  1  0  0  0  0
 12 19  1  0  0  0  0
 12 20  1  0  0  0  0
M  END
> <BIOSOLVEIT.HYDE_ESTIMATED_AFFINITY_LOWER_BOUNDARY [nM]>
90098.699331

> <BIOSOLVEIT.HYDE_ESTIMATED_AFFINITY_UPPER_BOUNDARY [nM]>
8951838.484196

> <BIOSOLVEIT.HYDE_LIGAND_EFFICIENCY range: ++, +, 0, -, -->
0

> <BIOSOLVEIT.HYDE_LIGAND_LIPOPHILIC_EFFICIENCY range: ++, +, 0, -, -->
--

> <BIOSOLVEIT.INTER_CLASH range: red, yellow, green>
green

> <BIOSOLVEIT.INTRA_CLASH range: red, yellow, green>
green

> <BIOSOLVEIT.LOGP>
1.7088

> <BIOSOLVEIT.MOLECULAR WEIGHT>
185.609

> <BIOSOLVEIT.MOLECULE_CHECKSUM>
LTE3LjM5MDU7MS40NDkyMQ==

> <BIOSOLVEIT.TORSION_QUALITY range: red, yellow, green, not rotatable>
green

> <BIOSOLVEIT.TPSA>
52.32

$$$$
3K5V_STJ_1
foHydescor03222115253D 1   1.00000     0.00000     0
Hydescorer 1.1.0 fol007
 40 42  0  0  0  0            999 V2000
   25.1263   46.7994   50.5185 N   0  0  0  0  0  0  0  0  0  0  0  0
   25.3795   45.7322   51.4364 C   0  0  0  0  0  0  0  0  0  0  0  0
   25.6239   44.5824   50.9798 O   0  0  0  0  0  0  0  0  0  0  0  0
   25.3432   45.9464   52.9040 C   0  0  0  0  0  0  0  0  0  0  0  0
   26.3726   46.6444   53.5272 C   0  0  0  0  0  0  0  0  0  0  0  0
   26.3215   46.8354   54.9043 C   0  0  0  0  0  0  0  0  0  0  0  0
   25.2619   46.3402   55.6571 C   0  0  0  0  0  0  0  0  0  0  0  0
   24.2429   45.6454   55.0129 C   0  0  0  0  0  0  0  0  0  0  0  0
   23.1328   45.1249   55.7879 C   0  0  0  0  0  0  0  0  0  0  0  0
   21.8686   45.0738   55.2099 C   0  0  0  0  0  0  0  0  0  0  0  0
   20.8110   44.5731   55.9622 C   0  0  0  0  0  0  0  0  0  0  0  0
   19.5335   44.5177   55.3902 N   0  0  0  0  0  0  0  0  0  0  0  0
   19.2128   43.7639   54.2087 C   0  0  0  0  0  0  0  0  0  0  0  0
   17.9738   43.1390   54.1075 C   0  0  0  0  0  0  0  0  0  0  0  0
   17.6546   42.4073   52.9677 C   0  0  0  0  0  0  0  0  0  0  0  0
   18.5867   42.3110   51.9398 C   0  0  0  0  0  0  0  0  0  0  0  0
   18.2897   41.6038   50.8295 O   0  0  0  0  0  0  0  0  0  0  0  0
   18.8241   40.3233   50.5010 C   0  0  0  0  0  0  0  0  0  0  0  0
   18.4985   39.4044   51.4827 F   0  0  0  0  0  0  0  0  0  0  0  0
   18.3335   39.9012   49.2784 F   0  0  0  0  0  0  0  0  0  0  0  0
   20.1996   40.4191   50.4198 F   0  0  0  0  0  0  0  0  0  0  0  0
   19.8287   42.9322   52.0325 C   0  0  0  0  0  0  0  0  0  0  0  0
   20.1390   43.6618   53.1753 C   0  0  0  0  0  0  0  0  0  0  0  0
   21.0407   44.1560   57.2165 N   0  0  0  0  0  0  0  0  0  0  0  0
   22.2657   44.2112   57.7606 C   0  0  0  0  0  0  0  0  0  0  0  0
   23.2952   44.6919   57.0472 N   0  0  0  0  0  0  0  0  0  0  0  0
   24.2738   45.4427   53.6369 C   0  0  0  0  0  0  0  0  0  0  0  0
   24.7933   47.6802   50.8552 H   0  0  0  0  0  0  0  0  0  0  0  0
   25.2821   46.6647   49.5398 H   0  0  0  0  0  0  0  0  0  0  0  0
   27.1380   47.0035   52.9932 H   0  0  0  0  0  0  0  0  0  0  0  0
   27.0575   47.3362   55.3598 H   0  0  0  0  0  0  0  0  0  0  0  0
   25.2328   46.4814   56.6467 H   0  0  0  0  0  0  0  0  0  0  0  0
   21.7230   45.3906   54.2727 H   0  0  0  0  0  0  0  0  0  0  0  0
   18.7994   45.0344   55.8308 H   0  0  0  0  0  0  0  0  0  0  0  0
   17.3127   43.2156   54.8539 H   0  0  0  0  0  0  0  0  0  0  0  0
   16.7657   41.9562   52.8887 H   0  0  0  0  0  0  0  0  0  0  0  0
   20.4900   42.8550   51.2864 H   0  0  0  0  0  0  0  0  0  0  0  0
   21.0280   44.1130   53.2544 H   0  0  0  0  0  0  0  0  0  0  0  0
   22.4115   43.8942   58.6977 H   0  0  0  0  0  0  0  0  0  0  0  0
   23.5377   44.9421   53.1814 H   0  0  0  0  0  0  0  0  0  0  0  0
  1  2  1  0  0  0  0
  2  3  2  0  0  0  0
  2  4  1  0  0  0  0
  4  5  2  0  0  0  0
  5  6  1  0  0  0  0
  6  7  2  0  0  0  0
  7  8  1  0  0  0  0
  8  9  1  0  0  0  0
  9 10  2  0  0  0  0
 10 11  1  0  0  0  0
 11 12  1  0  0  0  0
 12 13  1  0  0  0  0
 13 14  2  0  0  0  0
 14 15  1  0  0  0  0
 15 16  2  0  0  0  0
 16 17  1  0  0  0  0
 17 18  1  0  0  0  0
 18 19  1  0  0  0  0
 18 20  1  0  0  0  0
 18 21  1  0  0  0  0
 16 22  1  0  0  0  0
 22 23  2  0  0  0  0
 11 24  2  0  0  0  0
 24 25  1  0  0  0  0
 25 26  2  0  0  0  0
  8 27  2  0  0  0  0
 27  4  1  0  0  0  0
 26  9  1  0  0  0  0
 23 13  1  0  0  0  0
  1 28  1  0  0  0  0
  1 29  1  0  0  0  0
  5 30  1  0  0  0  0
  6 31  1  0  0  0  0
  7 32  1  0  0  0  0
 10 33  1  0  0  0  0
 12 34  1  0  0  0  0
 14 35  1  0  0  0  0
 15 36  1  0  0  0  0
 22 37  1  0  0  0  0
 23 38  1  0  0  0  0
 25 39  1  0  0  0  0
 27 40  1  0  0  0  0
M  END
> <BIOSOLVEIT.HYDE_ESTIMATED_AFFINITY_LOWER_BOUNDARY [nM]>
28.972909

> <BIOSOLVEIT.HYDE_ESTIMATED_AFFINITY_UPPER_BOUNDARY [nM]>
2878.629765

> <BIOSOLVEIT.HYDE_LIGAND_EFFICIENCY range: ++, +, 0, -, -->
0

> <BIOSOLVEIT.HYDE_LIGAND_LIPOPHILIC_EFFICIENCY range: ++, +, 0, -, -->
-

> <BIOSOLVEIT.INTER_CLASH range: red, yellow, green>
green

> <BIOSOLVEIT.INTRA_CLASH range: red, yellow, green>
yellow

> <BIOSOLVEIT.LOGP>
3.8847

> <BIOSOLVEIT.MOLECULAR WEIGHT>
374.321

> <BIOSOLVEIT.MOLECULE_CHECKSUM>
LTM3LjMyNzsxLjM4MjQ4

> <BIOSOLVEIT.TORSION_QUALITY range: red, yellow, green, not rotatable>
yellow

> <BIOSOLVEIT.TPSA>
90.13

$$$$
3K5V_STJ_2
foHydescor03222115253D 1   1.00000     0.00000     0
Hydescorer 1.1.0 fol007
 40 42  0  0  0  0            999 V2000
   27.7491   45.8919   51.6497 N   0  0  0  0  0  0  0  0  0  0  0  0
   26.6826   44.9745   51.9086 C   0  0  0  0  0  0  0  0  0  0  0  0
   26.1407   44.3820   50.9364 O   0  0  0  0  0  0  0  0  0  0  0  0
   26.1941   44.7220   53.2864 C   0  0  0  0  0  0  0  0  0  0  0  0
   27.1055   44.5478   54.3228 C   0  0  0  0  0  0  0  0  0  0  0  0
   26.6288   44.3119   55.6084 C   0  0  0  0  0  0  0  0  0  0  0  0
   25.2633   44.2488   55.8654 C   0  0  0  0  0  0  0  0  0  0  0  0
   24.3696   44.4264   54.8138 C   0  0  0  0  0  0  0  0  0  0  0  0
   22.9434   44.3632   55.0703 C   0  0  0  0  0  0  0  0  0  0  0  0
   22.0671   44.2433   53.9967 C   0  0  0  0  0  0  0  0  0  0  0  0
   20.7013   44.1837   54.2540 C   0  0  0  0  0  0  0  0  0  0  0  0
   19.8097   44.0637   53.1802 N   0  0  0  0  0  0  0  0  0  0  0  0
   19.5339   42.8288   52.4976 C   0  0  0  0  0  0  0  0  0  0  0  0
   18.7814   41.8459   53.1327 C   0  0  0  0  0  0  0  0  0  0  0  0
   18.5093   40.6476   52.4798 C   0  0  0  0  0  0  0  0  0  0  0  0
   18.9981   40.4495   51.1927 C   0  0  0  0  0  0  0  0  0  0  0  0
   18.7419   39.2916   50.5490 O   0  0  0  0  0  0  0  0  0  0  0  0
   17.5576   39.0053   49.8082 C   0  0  0  0  0  0  0  0  0  0  0  0
   17.4132   39.9100   48.7716 F   0  0  0  0  0  0  0  0  0  0  0  0
   17.6085   37.7172   49.3065 F   0  0  0  0  0  0  0  0  0  0  0  0
   16.4664   39.1132   50.6482 F   0  0  0  0  0  0  0  0  0  0  0  0
   19.7522   41.4268   50.5499 C   0  0  0  0  0  0  0  0  0  0  0  0
   20.0190   42.6217   51.2100 C   0  0  0  0  0  0  0  0  0  0  0  0
   20.2720   44.2428   55.5239 N   0  0  0  0  0  0  0  0  0  0  0  0
   21.1292   44.3582   56.5492 C   0  0  0  0  0  0  0  0  0  0  0  0
   22.4491   44.4171   56.3164 N   0  0  0  0  0  0  0  0  0  0  0  0
   24.8243   44.6633   53.5206 C   0  0  0  0  0  0  0  0  0  0  0  0
   28.1217   46.4479   52.3927 H   0  0  0  0  0  0  0  0  0  0  0  0
   28.1219   45.9772   50.7257 H   0  0  0  0  0  0  0  0  0  0  0  0
   28.0888   44.5915   54.1464 H   0  0  0  0  0  0  0  0  0  0  0  0
   27.2776   44.1859   56.3588 H   0  0  0  0  0  0  0  0  0  0  0  0
   24.9288   44.0785   56.7922 H   0  0  0  0  0  0  0  0  0  0  0  0
   22.4120   44.2009   53.0591 H   0  0  0  0  0  0  0  0  0  0  0  0
   19.3359   44.8877   52.8694 H   0  0  0  0  0  0  0  0  0  0  0  0
   18.4361   42.0006   54.0583 H   0  0  0  0  0  0  0  0  0  0  0  0
   17.9687   39.9372   52.9306 H   0  0  0  0  0  0  0  0  0  0  0  0
   20.0981   41.2717   49.6246 H   0  0  0  0  0  0  0  0  0  0  0  0
   20.5595   43.3321   50.7592 H   0  0  0  0  0  0  0  0  0  0  0  0
   20.7845   44.4003   57.4870 H   0  0  0  0  0  0  0  0  0  0  0  0
   24.1756   44.7895   52.7701 H   0  0  0  0  0  0  0  0  0  0  0  0
  1  2  1  0  0  0  0
  2  3  2  0  0  0  0
  2  4  1  0  0  0  0
  4  5  2  0  0  0  0
  5  6  1  0  0  0  0
  6  7  2  0  0  0  0
  7  8  1  0  0  0  0
  8  9  1  0  0  0  0
  9 10  2  0  0  0  0
 10 11  1  0  0  0  0
 11 12  1  0  0  0  0
 12 13  1  0  0  0  0
 13 14  2  0  0  0  0
 14 15  1  0  0  0  0
 15 16  2  0  0  0  0
 16 17  1  0  0  0  0
 17 18  1  0  0  0  0
 18 19  1  0  0  0  0
 18 20  1  0  0  0  0
 18 21  1  0  0  0  0
 16 22  1  0  0  0  0
 22 23  2  0  0  0  0
 11 24  2  0  0  0  0
 24 25  1  0  0  0  0
 25 26  2  0  0  0  0
  8 27  2  0  0  0  0
 27  4  1  0  0  0  0
 26  9  1  0  0  0  0
 23 13  1  0  0  0  0
  1 28  1  0  0  0  0
  1 29  1  0  0  0  0
  5 30  1  0  0  0  0
  6 31  1  0  0  0  0
  7 32  1  0  0  0  0
 10 33  1  0  0  0  0
 12 34  1  0  0  0  0
 14 35  1  0  0  0  0
 15 36  1  0  0  0  0
 22 37  1  0  0  0  0
 23 38  1  0  0  0  0
 25 39  1  0  0  0  0
 27 40  1  0  0  0  0
M  END
> <BIOSOLVEIT.HYDE_ESTIMATED_AFFINITY_LOWER_BOUNDARY [nM]>
367.547077

> <BIOSOLVEIT.HYDE_ESTIMATED_AFFINITY_UPPER_BOUNDARY [nM]>
36517.975213

> <BIOSOLVEIT.HYDE_LIGAND_EFFICIENCY range: ++, +, 0, -, -->
-

> <BIOSOLVEIT.HYDE_LIGAND_LIPOPHILIC_EFFICIENCY range: ++, +, 0, -, -->
--

> <BIOSOLVEIT.INTER_CLASH range: red, yellow, green>
green

> <BIOSOLVEIT.INTRA_CLASH range: red, yellow, green>
green

> <BIOSOLVEIT.LOGP>
3.8847

> <BIOSOLVEIT.MOLECULAR WEIGHT>
374.321

> <BIOSOLVEIT.MOLECULE_CHECKSUM>
LTMxLjAyOTM7MS4xNDkyMw==

> <BIOSOLVEIT.TORSION_QUALITY range: red, yellow, green, not rotatable>
yellow

> <BIOSOLVEIT.TPSA>
90.13

$$$$
3K5V_STJ_3
foHydescor03222115253D 1   1.00000     0.00000     0
Hydescorer 1.1.0 fol007
 40 42  0  0  0  0            999 V2000
   25.1044   46.7964   50.5245 N   0  0  0  0  0  0  0  0  0  0  0  0
   25.3805   45.7442   51.4532 C   0  0  0  0  0  0  0  0  0  0  0  0
   25.6224   44.5890   51.0093 O   0  0  0  0  0  0  0  0  0  0  0  0
   25.3703   45.9801   52.9178 C   0  0  0  0  0  0  0  0  0  0  0  0
   26.4037   46.6985   53.5103 C   0  0  0  0  0  0  0  0  0  0  0  0
   26.3772   46.9099   54.8852 C   0  0  0  0  0  0  0  0  0  0  0  0
   25.3380   46.4147   55.6658 C   0  0  0  0  0  0  0  0  0  0  0  0
   24.3145   45.6993   55.0522 C   0  0  0  0  0  0  0  0  0  0  0  0
   23.2254   45.1786   55.8565 C   0  0  0  0  0  0  0  0  0  0  0  0
   21.9628   45.0533   55.2866 C   0  0  0  0  0  0  0  0  0  0  0  0
   20.9254   44.5530   56.0668 C   0  0  0  0  0  0  0  0  0  0  0  0
   19.6495   44.4233   55.5033 N   0  0  0  0  0  0  0  0  0  0  0  0
   19.3591   43.6220   54.3454 C   0  0  0  0  0  0  0  0  0  0  0  0
   20.4019   43.1750   53.5400 C   0  0  0  0  0  0  0  0  0  0  0  0
   20.1304   42.3989   52.4174 C   0  0  0  0  0  0  0  0  0  0  0  0
   18.8106   42.0805   52.1153 C   0  0  0  0  0  0  0  0  0  0  0  0
   18.5339   41.3292   51.0289 O   0  0  0  0  0  0  0  0  0  0  0  0
   17.9003   40.0519   51.0503 C   0  0  0  0  0  0  0  0  0  0  0  0
   16.6422   40.1531   51.6169 F   0  0  0  0  0  0  0  0  0  0  0  0
   17.8002   39.5477   49.7660 F   0  0  0  0  0  0  0  0  0  0  0  0
   18.6624   39.1863   51.8104 F   0  0  0  0  0  0  0  0  0  0  0  0
   17.7611   42.5237   52.9147 C   0  0  0  0  0  0  0  0  0  0  0  0
   18.0419   43.2987   54.0351 C   0  0  0  0  0  0  0  0  0  0  0  0
   21.1726   44.2076   57.3396 N   0  0  0  0  0  0  0  0  0  0  0  0
   22.3959   44.3340   57.8756 C   0  0  0  0  0  0  0  0  0  0  0  0
   23.4058   44.8152   57.1351 N   0  0  0  0  0  0  0  0  0  0  0  0
   24.3209   45.4761   53.6790 C   0  0  0  0  0  0  0  0  0  0  0  0
   24.7798   47.6826   50.8550 H   0  0  0  0  0  0  0  0  0  0  0  0
   25.2360   46.6457   49.5447 H   0  0  0  0  0  0  0  0  0  0  0  0
   27.1546   47.0577   52.9562 H   0  0  0  0  0  0  0  0  0  0  0  0
   27.1163   47.4255   55.3186 H   0  0  0  0  0  0  0  0  0  0  0  0
   25.3266   46.5706   56.6535 H   0  0  0  0  0  0  0  0  0  0  0  0
   21.8039   45.3174   54.3352 H   0  0  0  0  0  0  0  0  0  0  0  0
   18.8943   44.9184   55.9328 H   0  0  0  0  0  0  0  0  0  0  0  0
   21.3465   43.4114   53.7679 H   0  0  0  0  0  0  0  0  0  0  0  0
   20.8754   42.0740   51.8348 H   0  0  0  0  0  0  0  0  0  0  0  0
   16.8166   42.2878   52.6863 H   0  0  0  0  0  0  0  0  0  0  0  0
   17.2968   43.6235   54.6177 H   0  0  0  0  0  0  0  0  0  0  0  0
   22.5549   44.0696   58.8268 H   0  0  0  0  0  0  0  0  0  0  0  0
   23.5816   44.9608   53.2454 H   0  0  0  0  0  0  0  0  0  0  0  0
  1  2  1  0  0  0  0
  2  3  2  0  0  0  0
  2  4  1  0  0  0  0
  4  5  2  0  0  0  0
  5  6  1  0  0  0  0
  6  7  2  0  0  0  0
  7  8  1  0  0  0  0
  8  9  1  0  0  0  0
  9 10  2  0  0  0  0
 10 11  1  0  0  0  0
 11 12  1  0  0  0  0
 12 13  1  0  0  0  0
 13 14  2  0  0  0  0
 14 15  1  0  0  0  0
 15 16  2  0  0  0  0
 16 17  1  0  0  0  0
 17 18  1  0  0  0  0
 18 19  1  0  0  0  0
 18 20  1  0  0  0  0
 18 21  1  0  0  0  0
 16 22  1  0  0  0  0
 22 23  2  0  0  0  0
 11 24  2  0  0  0  0
 24 25  1  0  0  0  0
 25 26  2  0  0  0  0
  8 27  2  0  0  0  0
 27  4  1  0  0  0  0
 26  9  1  0  0  0  0
 23 13  1  0  0  0  0
  1 28  1  0  0  0  0
  1 29  1  0  0  0  0
  5 30  1  0  0  0  0
  6 31  1  0  0  0  0
  7 32  1  0  0  0  0
 10 33  1  0  0  0  0
 12 34  1  0  0  0  0
 14 35  1  0  0  0  0
 15 36  1  0  0  0  0
 22 37  1  0  0  0  0
 23 38  1  0  0  0  0
 25 39  1  0  0  0  0
 27 40  1  0  0  0  0
M  END
> <BIOSOLVEIT.HYDE_ESTIMATED_AFFINITY_LOWER_BOUNDARY [nM]>
48.051690

> <BIOSOLVEIT.HYDE_ESTIMATED_AFFINITY_UPPER_BOUNDARY [nM]>
4774.219489

> <BIOSOLVEIT.HYDE_LIGAND_EFFICIENCY range: ++, +, 0, -, -->
0

> <BIOSOLVEIT.HYDE_LIGAND_LIPOPHILIC_EFFICIENCY range: ++, +, 0, -, -->
-

> <BIOSOLVEIT.INTER_CLASH range: red, yellow, green>
green

> <BIOSOLVEIT.INTRA_CLASH range: red, yellow, green>
yellow

> <BIOSOLVEIT.LOGP>
3.8847

> <BIOSOLVEIT.MOLECULAR WEIGHT>
374.321

> <BIOSOLVEIT.MOLECULE_CHECKSUM>
LTM2LjA3Mjk7MS4zMzYwMw==

> <BIOSOLVEIT.TORSION_QUALITY range: red, yellow, green, not rotatable>
yellow

> <BIOSOLVEIT.TPSA>
90.13

$$$$
3K5V_STI_1
foHydescor03222115253D 1   1.00000     0.00000     0
Hydescorer 1.1.0 fol007
 70 74  0  0  0  0            999 V2000
   24.2956   48.4936   59.9298 C   0  0  0  0  0  0  0  0  0  0  0  0
   23.4165   47.7224   58.9588 C   0  0  0  0  0  0  0  0  0  0  0  0
   22.1744   47.2719   59.3939 C   0  0  0  0  0  0  0  0  0  0  0  0
   21.3486   46.5637   58.5267 C   0  0  0  0  0  0  0  0  0  0  0  0
   21.7781   46.3139   57.2275 C   0  0  0  0  0  0  0  0  0  0  0  0
   20.9325   45.5828   56.3232 N   0  0  0  0  0  0  0  0  0  0  0  0
   21.4282   44.6808   55.3155 C   0  0  0  0  0  0  0  0  0  0  0  0
   22.6708   44.4982   55.1917 O   0  0  0  0  0  0  0  0  0  0  0  0
   20.5043   43.9483   54.4161 C   0  0  0  0  0  0  0  0  0  0  0  0
   20.9905   43.4141   53.2270 C   0  0  0  0  0  0  0  0  0  0  0  0
   20.1359   42.7232   52.3737 C   0  0  0  0  0  0  0  0  0  0  0  0
   18.7978   42.5772   52.7276 C   0  0  0  0  0  0  0  0  0  0  0  0
   17.8522   41.8255   51.8045 C   0  0  0  0  0  0  0  0  0  0  0  0
   18.1381   40.3711   51.7869 N   0  3  0  0  0  0  0  0  0  0  0  0
   16.8625   39.6423   51.7046 C   0  0  0  0  0  0  0  0  0  0  0  0
   17.0464   38.3095   50.9937 C   0  0  0  0  0  0  0  0  0  0  0  0
   17.3972   38.5152   49.5807 N   0  3  0  0  0  0  0  0  0  0  0  0
   16.2006   38.6439   48.7351 C   0  0  0  0  0  0  0  0  0  0  0  0
   18.2185   39.7219   49.4021 C   0  0  0  0  0  0  0  0  0  0  0  0
   19.0181   40.0021   50.6658 C   0  0  0  0  0  0  0  0  0  0  0  0
   18.3074   43.1099   53.9153 C   0  0  0  0  0  0  0  0  0  0  0  0
   19.1662   43.7999   54.7652 C   0  0  0  0  0  0  0  0  0  0  0  0
   23.0188   46.7612   56.7850 C   0  0  0  0  0  0  0  0  0  0  0  0
   23.8395   47.4686   57.6578 C   0  0  0  0  0  0  0  0  0  0  0  0
   25.0909   47.9253   57.2270 N   0  0  0  0  0  0  0  0  0  0  0  0
   25.9010   47.2331   56.2668 C   0  0  0  0  0  0  0  0  0  0  0  0
   26.9996   46.5905   56.6894 N   0  0  0  0  0  0  0  0  0  0  0  0
   27.7943   45.9270   55.8367 C   0  0  0  0  0  0  0  0  0  0  0  0
   27.4769   45.9014   54.4826 C   0  0  0  0  0  0  0  0  0  0  0  0
   26.3359   46.5709   54.0538 C   0  0  0  0  0  0  0  0  0  0  0  0
   25.9974   46.5492   52.6420 C   0  0  0  0  0  0  0  0  0  0  0  0
   25.4289   47.6761   52.0578 C   0  0  0  0  0  0  0  0  0  0  0  0
   25.1071   47.6518   50.7052 C   0  0  0  0  0  0  0  0  0  0  0  0
   25.3659   46.4951   49.9775 C   0  0  0  0  0  0  0  0  0  0  0  0
   25.9149   45.4208   50.5635 N   0  0  0  0  0  0  0  0  0  0  0  0
   26.2346   45.4191   51.8664 C   0  0  0  0  0  0  0  0  0  0  0  0
   25.5850   47.2153   54.9618 N   0  0  0  0  0  0  0  0  0  0  0  0
   25.1495   48.7486   59.4760 H   0  0  0  0  0  0  0  0  0  0  0  0
   23.8174   49.3195   60.2287 H   0  0  0  0  0  0  0  0  0  0  0  0
   24.4983   47.9202   60.7237 H   0  0  0  0  0  0  0  0  0  0  0  0
   21.8751   47.4571   60.3299 H   0  0  0  0  0  0  0  0  0  0  0  0
   20.4548   46.2374   58.8345 H   0  0  0  0  0  0  0  0  0  0  0  0
   19.9431   45.7078   56.3981 H   0  0  0  0  0  0  0  0  0  0  0  0
   21.9543   43.5266   52.9857 H   0  0  0  0  0  0  0  0  0  0  0  0
   20.4785   42.3367   51.5174 H   0  0  0  0  0  0  0  0  0  0  0  0
   17.9513   42.1859   50.8770 H   0  0  0  0  0  0  0  0  0  0  0  0
   16.9133   41.9669   52.1185 H   0  0  0  0  0  0  0  0  0  0  0  0
   18.5918   40.1246   52.6432 H   0  0  0  0  0  0  0  0  0  0  0  0
   16.2010   40.1953   51.1981 H   0  0  0  0  0  0  0  0  0  0  0  0
   16.5196   39.4761   52.6291 H   0  0  0  0  0  0  0  0  0  0  0  0
   16.1943   37.7889   51.0475 H   0  0  0  0  0  0  0  0  0  0  0  0
   17.7788   37.7972   51.4421 H   0  0  0  0  0  0  0  0  0  0  0  0
   17.9232   37.7248   49.2667 H   0  0  0  0  0  0  0  0  0  0  0  0
   16.4776   38.7821   47.7843 H   0  0  0  0  0  0  0  0  0  0  0  0
   15.6520   37.8107   48.8047 H   0  0  0  0  0  0  0  0  0  0  0  0
   15.6586   39.4265   49.0416 H   0  0  0  0  0  0  0  0  0  0  0  0
   17.6230   40.5014   49.2079 H   0  0  0  0  0  0  0  0  0  0  0  0
   18.8472   39.5838   48.6368 H   0  0  0  0  0  0  0  0  0  0  0  0
   19.6529   40.7544   50.4891 H   0  0  0  0  0  0  0  0  0  0  0  0
   19.5338   39.1819   50.9132 H   0  0  0  0  0  0  0  0  0  0  0  0
   17.3435   42.9977   54.1569 H   0  0  0  0  0  0  0  0  0  0  0  0
   18.8236   44.1865   55.6215 H   0  0  0  0  0  0  0  0  0  0  0  0
   23.3178   46.5761   55.8489 H   0  0  0  0  0  0  0  0  0  0  0  0
   25.4391   48.7810   57.6097 H   0  0  0  0  0  0  0  0  0  0  0  0
   28.6091   45.4541   56.1720 H   0  0  0  0  0  0  0  0  0  0  0  0
   28.0568   45.4120   53.8313 H   0  0  0  0  0  0  0  0  0  0  0  0
   25.2535   48.4949   52.6044 H   0  0  0  0  0  0  0  0  0  0  0  0
   24.6976   48.4504   50.2643 H   0  0  0  0  0  0  0  0  0  0  0  0
   25.1394   46.4641   49.0041 H   0  0  0  0  0  0  0  0  0  0  0  0
   26.6434   44.6055   52.2799 H   0  0  0  0  0  0  0  0  0  0  0  0
  1  2  1  0  0  0  0
  2  3  2  0  0  0  0
  3  4  1  0  0  0  0
  4  5  2  0  0  0  0
  5  6  1  0  0  0  0
  6  7  1  0  0  0  0
  7  8  2  0  0  0  0
  7  9  1  0  0  0  0
  9 10  2  0  0  0  0
 10 11  1  0  0  0  0
 11 12  2  0  0  0  0
 12 13  1  0  0  0  0
 13 14  1  0  0  0  0
 14 15  1  0  0  0  0
 15 16  1  0  0  0  0
 16 17  1  0  0  0  0
 17 18  1  0  0  0  0
 17 19  1  0  0  0  0
 19 20  1  0  0  0  0
 12 21  1  0  0  0  0
 21 22  2  0  0  0  0
  5 23  1  0  0  0  0
 23 24  2  0  0  0  0
 24 25  1  0  0  0  0
 25 26  1  0  0  0  0
 26 27  2  0  0  0  0
 27 28  1  0  0  0  0
 28 29  2  0  0  0  0
 29 30  1  0  0  0  0
 30 31  1  0  0  0  0
 31 32  2  0  0  0  0
 32 33  1  0  0  0  0
 33 34  2  0  0  0  0
 34 35  1  0  0  0  0
 35 36  2  0  0  0  0
 30 37  2  0  0  0  0
 24  2  1  0  0  0  0
 37 26  1  0  0  0  0
 22  9  1  0  0  0  0
 36 31  1  0  0  0  0
 20 14  1  0  0  0  0
  1 38  1  0  0  0  0
  1 39  1  0  0  0  0
  1 40  1  0  0  0  0
  3 41  1  0  0  0  0
  4 42  1  0  0  0  0
  6 43  1  0  0  0  0
 10 44  1  0  0  0  0
 11 45  1  0  0  0  0
 13 46  1  0  0  0  0
 13 47  1  0  0  0  0
 14 48  1  0  0  0  0
 15 49  1  0  0  0  0
 15 50  1  0  0  0  0
 16 51  1  0  0  0  0
 16 52  1  0  0  0  0
 17 53  1  0  0  0  0
 18 54  1  0  0  0  0
 18 55  1  0  0  0  0
 18 56  1  0  0  0  0
 19 57  1  0  0  0  0
 19 58  1  0  0  0  0
 20 59  1  0  0  0  0
 20 60  1  0  0  0  0
 21 61  1  0  0  0  0
 22 62  1  0  0  0  0
 23 63  1  0  0  0  0
 25 64  1  0  0  0  0
 28 65  1  0  0  0  0
 29 66  1  0  0  0  0
 32 67  1  0  0  0  0
 33 68  1  0  0  0  0
 34 69  1  0  0  0  0
 36 70  1  0  0  0  0
M  CHG  2  14   1  17   1
M  END
> <BIOSOLVEIT.HYDE_ESTIMATED_AFFINITY_LOWER_BOUNDARY [nM]>
40.072373

> <BIOSOLVEIT.HYDE_ESTIMATED_AFFINITY_UPPER_BOUNDARY [nM]>
3981.427158

> <BIOSOLVEIT.HYDE_LIGAND_EFFICIENCY range: ++, +, 0, -, -->
-

> <BIOSOLVEIT.HYDE_LIGAND_LIPOPHILIC_EFFICIENCY range: ++, +, 0, -, -->
0

> <BIOSOLVEIT.INTER_CLASH range: red, yellow, green>
green

> <BIOSOLVEIT.INTRA_CLASH range: red, yellow, green>
yellow

> <BIOSOLVEIT.LOGP>
1.75612

> <BIOSOLVEIT.MOLECULAR WEIGHT>
495.628

> <BIOSOLVEIT.MOLECULE_CHECKSUM>
LTM2LjUyMzswLjk4NzEwOQ==

> <BIOSOLVEIT.TORSION_QUALITY range: red, yellow, green, not rotatable>
yellow

> <BIOSOLVEIT.TPSA>
88.68

$$$$
3K5V_STI_2
foHydescor03222115253D 1   1.00000     0.00000     0
Hydescorer 1.1.0 fol007
 70 74  0  0  0  0            999 V2000
   24.4795   48.1257   60.6977 C   0  0  0  0  0  0  0  0  0  0  0  0
   23.5592   47.4688   59.6817 C   0  0  0  0  0  0  0  0  0  0  0  0
   22.4707   46.7348   60.1413 C   0  0  0  0  0  0  0  0  0  0  0  0
   21.6114   46.1230   59.2342 C   0  0  0  0  0  0  0  0  0  0  0  0
   21.8532   46.2543   57.8706 C   0  0  0  0  0  0  0  0  0  0  0  0
   20.9715   45.6259   56.9246 N   0  0  0  0  0  0  0  0  0  0  0  0
   21.4212   44.9740   55.7214 C   0  0  0  0  0  0  0  0  0  0  0  0
   22.6532   44.9337   55.4510 O   0  0  0  0  0  0  0  0  0  0  0  0
   20.4624   44.3361   54.7870 C   0  0  0  0  0  0  0  0  0  0  0  0
   20.8496   44.0933   53.4729 C   0  0  0  0  0  0  0  0  0  0  0  0
   19.9614   43.4944   52.5852 C   0  0  0  0  0  0  0  0  0  0  0  0
   18.6901   43.1454   53.0309 C   0  0  0  0  0  0  0  0  0  0  0  0
   17.7088   42.4911   52.0717 C   0  0  0  0  0  0  0  0  0  0  0  0
   18.4029   41.7350   51.0022 N   0  3  0  0  0  0  0  0  0  0  0  0
   19.3026   40.7041   51.5445 C   0  0  0  0  0  0  0  0  0  0  0  0
   18.5607   39.4002   51.7953 C   0  0  0  0  0  0  0  0  0  0  0  0
   18.1181   38.8237   50.5183 N   0  3  0  0  0  0  0  0  0  0  0  0
   16.8946   38.0365   50.7306 C   0  0  0  0  0  0  0  0  0  0  0  0
   17.9386   39.8677   49.4960 C   0  0  0  0  0  0  0  0  0  0  0  0
   17.3903   41.1459   50.1145 C   0  0  0  0  0  0  0  0  0  0  0  0
   18.2986   43.3866   54.3437 C   0  0  0  0  0  0  0  0  0  0  0  0
   19.1906   43.9857   55.2276 C   0  0  0  0  0  0  0  0  0  0  0  0
   22.9396   46.9867   57.4033 C   0  0  0  0  0  0  0  0  0  0  0  0
   23.7949   47.5956   58.3162 C   0  0  0  0  0  0  0  0  0  0  0  0
   24.8925   48.3362   57.8612 N   0  0  0  0  0  0  0  0  0  0  0  0
   25.7801   47.8865   56.8282 C   0  0  0  0  0  0  0  0  0  0  0  0
   26.8321   47.1255   57.1640 N   0  0  0  0  0  0  0  0  0  0  0  0
   27.6950   46.6768   56.2406 C   0  0  0  0  0  0  0  0  0  0  0  0
   27.4995   47.0046   54.9029 C   0  0  0  0  0  0  0  0  0  0  0  0
   26.4060   47.7942   54.5644 C   0  0  0  0  0  0  0  0  0  0  0  0
   26.1946   48.1412   53.1704 C   0  0  0  0  0  0  0  0  0  0  0  0
   25.4154   47.3126   52.3700 C   0  0  0  0  0  0  0  0  0  0  0  0
   25.2146   47.6488   51.0358 C   0  0  0  0  0  0  0  0  0  0  0  0
   25.8028   48.8088   50.5432 C   0  0  0  0  0  0  0  0  0  0  0  0
   26.5505   49.5919   51.3350 N   0  0  0  0  0  0  0  0  0  0  0  0
   26.7590   49.2898   52.6252 C   0  0  0  0  0  0  0  0  0  0  0  0
   25.5816   48.2093   55.5399 N   0  0  0  0  0  0  0  0  0  0  0  0
   25.2097   48.6136   60.2196 H   0  0  0  0  0  0  0  0  0  0  0  0
   23.9556   48.7711   61.2536 H   0  0  0  0  0  0  0  0  0  0  0  0
   24.8785   47.4243   61.2884 H   0  0  0  0  0  0  0  0  0  0  0  0
   22.3058   46.6469   61.1237 H   0  0  0  0  0  0  0  0  0  0  0  0
   20.8276   45.5940   59.5592 H   0  0  0  0  0  0  0  0  0  0  0  0
   19.9895   45.6424   57.1128 H   0  0  0  0  0  0  0  0  0  0  0  0
   21.7663   44.3493   53.1664 H   0  0  0  0  0  0  0  0  0  0  0  0
   20.2329   43.3170   51.6392 H   0  0  0  0  0  0  0  0  0  0  0  0
   17.1447   43.2018   51.6513 H   0  0  0  0  0  0  0  0  0  0  0  0
   17.1248   41.8624   52.5853 H   0  0  0  0  0  0  0  0  0  0  0  0
   18.9507   42.3791   50.4684 H   0  0  0  0  0  0  0  0  0  0  0  0
   19.6892   41.0300   52.4072 H   0  0  0  0  0  0  0  0  0  0  0  0
   20.0402   40.5384   50.8900 H   0  0  0  0  0  0  0  0  0  0  0  0
   17.7639   39.5777   52.3729 H   0  0  0  0  0  0  0  0  0  0  0  0
   19.1699   38.7554   52.2569 H   0  0  0  0  0  0  0  0  0  0  0  0
   18.8323   38.2008   50.1989 H   0  0  0  0  0  0  0  0  0  0  0  0
   16.5950   37.6450   49.8606 H   0  0  0  0  0  0  0  0  0  0  0  0
   17.0807   37.3001   51.3810 H   0  0  0  0  0  0  0  0  0  0  0  0
   16.1760   38.6291   51.0946 H   0  0  0  0  0  0  0  0  0  0  0  0
   17.2982   39.5393   48.8017 H   0  0  0  0  0  0  0  0  0  0  0  0
   18.8216   40.0632   49.0693 H   0  0  0  0  0  0  0  0  0  0  0  0
   16.5673   40.9346   50.6418 H   0  0  0  0  0  0  0  0  0  0  0  0
   17.1638   41.7964   49.3895 H   0  0  0  0  0  0  0  0  0  0  0  0
   17.3817   43.1309   54.6504 H   0  0  0  0  0  0  0  0  0  0  0  0
   18.9191   44.1632   56.1735 H   0  0  0  0  0  0  0  0  0  0  0  0
   23.1043   47.0747   56.4208 H   0  0  0  0  0  0  0  0  0  0  0  0
   25.0671   49.2276   58.2793 H   0  0  0  0  0  0  0  0  0  0  0  0
   28.4734   46.1106   56.5118 H   0  0  0  0  0  0  0  0  0  0  0  0
   28.1317   46.6794   54.1998 H   0  0  0  0  0  0  0  0  0  0  0  0
   25.0040   46.4841   52.7500 H   0  0  0  0  0  0  0  0  0  0  0  0
   24.6581   47.0678   50.4420 H   0  0  0  0  0  0  0  0  0  0  0  0
   25.6665   49.0625   49.5856 H   0  0  0  0  0  0  0  0  0  0  0  0
   27.3200   49.8903   53.1951 H   0  0  0  0  0  0  0  0  0  0  0  0
  1  2  1  0  0  0  0
  2  3  2  0  0  0  0
  3  4  1  0  0  0  0
  4  5  2  0  0  0  0
  5  6  1  0  0  0  0
  6  7  1  0  0  0  0
  7  8  2  0  0  0  0
  7  9  1  0  0  0  0
  9 10  2  0  0  0  0
 10 11  1  0  0  0  0
 11 12  2  0  0  0  0
 12 13  1  0  0  0  0
 13 14  1  0  0  0  0
 14 15  1  0  0  0  0
 15 16  1  0  0  0  0
 16 17  1  0  0  0  0
 17 18  1  0  0  0  0
 17 19  1  0  0  0  0
 19 20  1  0  0  0  0
 12 21  1  0  0  0  0
 21 22  2  0  0  0  0
  5 23  1  0  0  0  0
 23 24  2  0  0  0  0
 24 25  1  0  0  0  0
 25 26  1  0  0  0  0
 26 27  2  0  0  0  0
 27 28  1  0  0  0  0
 28 29  2  0  0  0  0
 29 30  1  0  0  0  0
 30 31  1  0  0  0  0
 31 32  2  0  0  0  0
 32 33  1  0  0  0  0
 33 34  2  0  0  0  0
 34 35  1  0  0  0  0
 35 36  2  0  0  0  0
 30 37  2  0  0  0  0
 24  2  1  0  0  0  0
 37 26  1  0  0  0  0
 22  9  1  0  0  0  0
 36 31  1  0  0  0  0
 20 14  1  0  0  0  0
  1 38  1  0  0  0  0
  1 39  1  0  0  0  0
  1 40  1  0  0  0  0
  3 41  1  0  0  0  0
  4 42  1  0  0  0  0
  6 43  1  0  0  0  0
 10 44  1  0  0  0  0
 11 45  1  0  0  0  0
 13 46  1  0  0  0  0
 13 47  1  0  0  0  0
 14 48  1  0  0  0  0
 15 49  1  0  0  0  0
 15 50  1  0  0  0  0
 16 51  1  0  0  0  0
 16 52  1  0  0  0  0
 17 53  1  0  0  0  0
 18 54  1  0  0  0  0
 18 55  1  0  0  0  0
 18 56  1  0  0  0  0
 19 57  1  0  0  0  0
 19 58  1  0  0  0  0
 20 59  1  0  0  0  0
 20 60  1  0  0  0  0
 21 61  1  0  0  0  0
 22 62  1  0  0  0  0
 23 63  1  0  0  0  0
 25 64  1  0  0  0  0
 28 65  1  0  0  0  0
 29 66  1  0  0  0  0
 32 67  1  0  0  0  0
 33 68  1  0  0  0  0
 34 69  1  0  0  0  0
 36 70  1  0  0  0  0
M  CHG  2  14   1  17   1
M  END
> <BIOSOLVEIT.HYDE_ESTIMATED_AFFINITY_LOWER_BOUNDARY [nM]>
10002.444343

> <BIOSOLVEIT.HYDE_ESTIMATED_AFFINITY_UPPER_BOUNDARY [nM]>
993801.984628

> <BIOSOLVEIT.HYDE_LIGAND_EFFICIENCY range: ++, +, 0, -, -->
--

> <BIOSOLVEIT.HYDE_LIGAND_LIPOPHILIC_EFFICIENCY range: ++, +, 0, -, -->
-

> <BIOSOLVEIT.INTER_CLASH range: red, yellow, green>
green

> <BIOSOLVEIT.INTRA_CLASH range: red, yellow, green>
yellow

> <BIOSOLVEIT.LOGP>
1.75612

> <BIOSOLVEIT.MOLECULAR WEIGHT>
495.628

> <BIOSOLVEIT.MOLECULE_CHECKSUM>
LTIyLjgzOTQ7MC42MTcyODI=

> <BIOSOLVEIT.TORSION_QUALITY range: red, yellow, green, not rotatable>
red

> <BIOSOLVEIT.TPSA>
88.68

$$$$
3K5V_STI_3
foHydescor03222115253D 1   1.00000     0.00000     0
Hydescorer 1.1.0 fol007
 70 74  0  0  0  0            999 V2000
   29.6595   45.2293   58.3804 C   0  0  0  0  0  0  0  0  0  0  0  0
   28.3996   44.8664   57.6112 C   0  0  0  0  0  0  0  0  0  0  0  0
   28.4274   44.9136   56.2213 C   0  0  0  0  0  0  0  0  0  0  0  0
   27.2892   44.5862   55.4914 C   0  0  0  0  0  0  0  0  0  0  0  0
   26.1308   44.2134   56.1651 C   0  0  0  0  0  0  0  0  0  0  0  0
   24.9488   43.8733   55.4204 N   0  0  0  0  0  0  0  0  0  0  0  0
   23.7511   44.6735   55.4097 C   0  0  0  0  0  0  0  0  0  0  0  0
   23.7021   45.7409   56.0814 O   0  0  0  0  0  0  0  0  0  0  0  0
   22.5651   44.2736   54.6143 C   0  0  0  0  0  0  0  0  0  0  0  0
   22.7254   43.4027   53.5413 C   0  0  0  0  0  0  0  0  0  0  0  0
   21.6218   43.0176   52.7867 C   0  0  0  0  0  0  0  0  0  0  0  0
   20.3656   43.5147   53.1212 C   0  0  0  0  0  0  0  0  0  0  0  0
   19.1509   43.1032   52.3050 C   0  0  0  0  0  0  0  0  0  0  0  0
   18.9980   41.6299   52.2470 N   0  3  0  0  0  0  0  0  0  0  0  0
   19.8369   41.0644   51.1747 C   0  0  0  0  0  0  0  0  0  0  0  0
   19.0283   40.2892   50.1418 C   0  0  0  0  0  0  0  0  0  0  0  0
   18.2195   39.2690   50.8257 N   0  3  0  0  0  0  0  0  0  0  0  0
   17.3600   38.5957   49.8422 C   0  0  0  0  0  0  0  0  0  0  0  0
   17.4137   39.8083   51.9340 C   0  0  0  0  0  0  0  0  0  0  0  0
   17.5706   41.3139   52.0876 C   0  0  0  0  0  0  0  0  0  0  0  0
   20.2007   44.3859   54.1930 C   0  0  0  0  0  0  0  0  0  0  0  0
   21.3076   44.7679   54.9446 C   0  0  0  0  0  0  0  0  0  0  0  0
   26.0952   44.1636   57.5548 C   0  0  0  0  0  0  0  0  0  0  0  0
   27.2371   44.4926   58.2783 C   0  0  0  0  0  0  0  0  0  0  0  0
   27.2168   44.4471   59.6776 N   0  0  0  0  0  0  0  0  0  0  0  0
   26.2890   45.1876   60.4824 C   0  0  0  0  0  0  0  0  0  0  0  0
   26.7566   46.1522   61.2884 N   0  0  0  0  0  0  0  0  0  0  0  0
   25.9357   46.8763   62.0632 C   0  0  0  0  0  0  0  0  0  0  0  0
   24.5677   46.6260   62.0344 C   0  0  0  0  0  0  0  0  0  0  0  0
   24.0921   45.6237   61.1957 C   0  0  0  0  0  0  0  0  0  0  0  0
   22.6655   45.3557   61.1598 C   0  0  0  0  0  0  0  0  0  0  0  0
   21.8994   45.5762   62.2996 C   0  0  0  0  0  0  0  0  0  0  0  0
   20.5335   45.3193   62.2608 C   0  0  0  0  0  0  0  0  0  0  0  0
   19.9754   44.8478   61.0773 C   0  0  0  0  0  0  0  0  0  0  0  0
   20.7353   44.6430   59.9910 N   0  0  0  0  0  0  0  0  0  0  0  0
   22.0550   44.8834   60.0026 C   0  0  0  0  0  0  0  0  0  0  0  0
   24.9702   44.9370   60.4466 N   0  0  0  0  0  0  0  0  0  0  0  0
   29.4856   45.1489   59.3619 H   0  0  0  0  0  0  0  0  0  0  0  0
   30.3990   44.6082   58.1208 H   0  0  0  0  0  0  0  0  0  0  0  0
   29.9227   46.1695   58.1644 H   0  0  0  0  0  0  0  0  0  0  0  0
   29.2654   45.1828   55.7467 H   0  0  0  0  0  0  0  0  0  0  0  0
   27.3038   44.6187   54.4920 H   0  0  0  0  0  0  0  0  0  0  0  0
   24.9587   43.0328   54.8786 H   0  0  0  0  0  0  0  0  0  0  0  0
   23.6340   43.0534   53.3123 H   0  0  0  0  0  0  0  0  0  0  0  0
   21.7297   42.3919   52.0142 H   0  0  0  0  0  0  0  0  0  0  0  0
   19.2524   43.4547   51.3743 H   0  0  0  0  0  0  0  0  0  0  0  0
   18.3321   43.4971   52.7225 H   0  0  0  0  0  0  0  0  0  0  0  0
   19.3067   41.2493   53.1187 H   0  0  0  0  0  0  0  0  0  0  0  0
   20.5074   40.4465   51.5853 H   0  0  0  0  0  0  0  0  0  0  0  0
   20.3126   41.8128   50.7125 H   0  0  0  0  0  0  0  0  0  0  0  0
   19.6492   39.8456   49.4954 H   0  0  0  0  0  0  0  0  0  0  0  0
   18.4266   40.9173   49.6483 H   0  0  0  0  0  0  0  0  0  0  0  0
   18.8441   38.5863   51.2049 H   0  0  0  0  0  0  0  0  0  0  0  0
   16.8078   37.9007   50.3026 H   0  0  0  0  0  0  0  0  0  0  0  0
   16.7581   39.2674   49.4103 H   0  0  0  0  0  0  0  0  0  0  0  0
   17.9292   38.1608   49.1445 H   0  0  0  0  0  0  0  0  0  0  0  0
   17.7014   39.3673   52.7842 H   0  0  0  0  0  0  0  0  0  0  0  0
   16.4507   39.6019   51.7607 H   0  0  0  0  0  0  0  0  0  0  0  0
   17.0661   41.6236   52.8935 H   0  0  0  0  0  0  0  0  0  0  0  0
   17.2138   41.7734   51.2741 H   0  0  0  0  0  0  0  0  0  0  0  0
   19.2922   44.7356   54.4219 H   0  0  0  0  0  0  0  0  0  0  0  0
   21.1997   45.3937   55.7171 H   0  0  0  0  0  0  0  0  0  0  0  0
   25.2572   43.8941   58.0292 H   0  0  0  0  0  0  0  0  0  0  0  0
   27.8860   43.8664   60.1413 H   0  0  0  0  0  0  0  0  0  0  0  0
   26.3044   47.5912   62.6575 H   0  0  0  0  0  0  0  0  0  0  0  0
   23.9396   47.1554   62.6046 H   0  0  0  0  0  0  0  0  0  0  0  0
   22.3263   45.9158   63.1378 H   0  0  0  0  0  0  0  0  0  0  0  0
   19.9634   45.4706   63.0683 H   0  0  0  0  0  0  0  0  0  0  0  0
   18.9943   44.6590   61.0355 H   0  0  0  0  0  0  0  0  0  0  0  0
   22.5998   44.7231   59.1795 H   0  0  0  0  0  0  0  0  0  0  0  0
  1  2  1  0  0  0  0
  2  3  2  0  0  0  0
  3  4  1  0  0  0  0
  4  5  2  0  0  0  0
  5  6  1  0  0  0  0
  6  7  1  0  0  0  0
  7  8  2  0  0  0  0
  7  9  1  0  0  0  0
  9 10  2  0  0  0  0
 10 11  1  0  0  0  0
 11 12  2  0  0  0  0
 12 13  1  0  0  0  0
 13 14  1  0  0  0  0
 14 15  1  0  0  0  0
 15 16  1  0  0  0  0
 16 17  1  0  0  0  0
 17 18  1  0  0  0  0
 17 19  1  0  0  0  0
 19 20  1  0  0  0  0
 12 21  1  0  0  0  0
 21 22  2  0  0  0  0
  5 23  1  0  0  0  0
 23 24  2  0  0  0  0
 24 25  1  0  0  0  0
 25 26  1  0  0  0  0
 26 27  2  0  0  0  0
 27 28  1  0  0  0  0
 28 29  2  0  0  0  0
 29 30  1  0  0  0  0
 30 31  1  0  0  0  0
 31 32  2  0  0  0  0
 32 33  1  0  0  0  0
 33 34  2  0  0  0  0
 34 35  1  0  0  0  0
 35 36  2  0  0  0  0
 30 37  2  0  0  0  0
 24  2  1  0  0  0  0
 37 26  1  0  0  0  0
 22  9  1  0  0  0  0
 36 31  1  0  0  0  0
 20 14  1  0  0  0  0
  1 38  1  0  0  0  0
  1 39  1  0  0  0  0
  1 40  1  0  0  0  0
  3 41  1  0  0  0  0
  4 42  1  0  0  0  0
  6 43  1  0  0  0  0
 10 44  1  0  0  0  0
 11 45  1  0  0  0  0
 13 46  1  0  0  0  0
 13 47  1  0  0  0  0
 14 48  1  0  0  0  0
 15 49  1  0  0  0  0
 15 50  1  0  0  0  0
 16 51  1  0  0  0  0
 16 52  1  0  0  0  0
 17 53  1  0  0  0  0
 18 54  1  0  0  0  0
 18 55  1  0  0  0  0
 18 56  1  0  0  0  0
 19 57  1  0  0  0  0
 19 58  1  0  0  0  0
 20 59  1  0  0  0  0
 20 60  1  0  0  0  0
 21 61  1  0  0  0  0
 22 62  1  0  0  0  0
 23 63  1  0  0  0  0
 25 64  1  0  0  0  0
 28 65  1  0  0  0  0
 29 66  1  0  0  0  0
 32 67  1  0  0  0  0
 33 68  1  0  0  0  0
 34 69  1  0  0  0  0
 36 70  1  0  0  0  0
M  CHG  2  14   1  17   1
M  END
> <BIOSOLVEIT.HYDE_ESTIMATED_AFFINITY_LOWER_BOUNDARY [nM]>
365.535427

> <BIOSOLVEIT.HYDE_ESTIMATED_AFFINITY_UPPER_BOUNDARY [nM]>
36318.105878

> <BIOSOLVEIT.HYDE_LIGAND_EFFICIENCY range: ++, +, 0, -, -->
-

> <BIOSOLVEIT.HYDE_LIGAND_LIPOPHILIC_EFFICIENCY range: ++, +, 0, -, -->
0

> <BIOSOLVEIT.INTER_CLASH range: red, yellow, green>
green

> <BIOSOLVEIT.INTRA_CLASH range: red, yellow, green>
green

> <BIOSOLVEIT.LOGP>
1.75612

> <BIOSOLVEIT.MOLECULAR WEIGHT>
495.628

> <BIOSOLVEIT.MOLECULE_CHECKSUM>
LTMxLjA0Mjk7MC44Mzg5OTY=

> <BIOSOLVEIT.TORSION_QUALITY range: red, yellow, green, not rotatable>
red

> <BIOSOLVEIT.TPSA>
88.68

$$$$
