@<TRIPOS>MOLECULE
UNK
40 42 0 0 0
SMALL
GASTEIGER

@<TRIPOS>ATOM
   1    N       26.0860   46.6930   51.3990 N.am  1 UNL -0.3656
   2    C       26.0390   45.3460   51.8770 C.2   1 UNL  0.2482
   3    O       25.9660   44.4060   51.0390 O.2   1 UNL -0.2696
   4    C       26.0920   45.0340   53.3260 C.ar  1 UNL  0.0397
   5    C       27.3210   44.8540   53.9510 C.ar  1 UNL -0.0494
   6    C       27.3510   44.5620   55.3110 C.ar  1 UNL -0.0608
   7    C       26.1750   44.4500   56.0450 C.ar  1 UNL -0.0528
   8    C       24.9560   44.6340   55.4000 C.ar  1 UNL  0.0011
   9    C       23.7230   44.5200   56.1560 C.ar  1 UNL  0.0757
  10    C       22.5080   44.6310   55.4890 C.ar  1 UNL  0.0072
  11    C       21.3320   44.5200   56.2230 C.ar  1 UNL  0.1338
  12    N       20.1020   44.6310   55.5620 N.pl3 1 UNL -0.3401
  13    C       19.7090   43.8100   54.4490 C.ar  1 UNL  0.0398
  14    C       20.6760   43.3470   53.5620 C.ar  1 UNL -0.0349
  15    C       20.3060   42.5510   52.4830 C.ar  1 UNL -0.0175
  16    C       18.9650   42.2290   52.3050 C.ar  1 UNL  0.1291
  17    O       18.5920   41.4590   51.2610 O.3   1 UNL -0.4058
  18    C       17.8190   40.2640   51.3530 C.3   1 UNL  0.5726
  19    F       16.5870   40.5360   51.9210 F     1 UNL -0.1323
  20    F       17.6220   39.7590   50.0830 F     1 UNL -0.1323
  21    F       18.4890   39.3200   52.1100 F     1 UNL -0.1323
  22    C       17.9900   42.6890   53.1860 C.ar  1 UNL -0.0175
  23    C       18.3700   43.4830   54.2630 C.ar  1 UNL -0.0349
  24    N       21.4040   44.3090   57.5460 N.ar  1 UNL -0.2193
  25    C       22.5840   44.2040   58.1760 C.ar  1 UNL  0.1180
  26    N       23.7270   44.3100   57.4800 N.ar  1 UNL -0.2362
  27    C       24.9030   44.9270   54.0410 C.ar  1 UNL -0.0400
  28    H       26.1457   47.4747   52.0670 H     1 UNL  0.1595
  29    H       26.0601   46.8814   50.3867 H     1 UNL  0.1595
  30    H       28.2561   44.9412   53.3784 H     1 UNL  0.0631
  31    H       28.3190   44.4176   55.8131 H     1 UNL  0.0623
  32    H       26.2081   44.2193   57.1200 H     1 UNL  0.0630
  33    H       22.4776   44.8031   54.4030 H     1 UNL  0.0685
  34    H       19.4379   45.3450   55.8938 H     1 UNL  0.1681
  35    H       21.7331   43.6105   53.7141 H     1 UNL  0.0646
  36    H       21.0654   42.1805   51.7787 H     1 UNL  0.0663
  37    H       16.9326   42.4278   53.0323 H     1 UNL  0.0663
  38    H       17.6109   43.8526   54.9681 H     1 UNL  0.0646
  39    H       22.6148   44.0312   59.2619 H     1 UNL  0.1064
  40    H       23.9351   45.0720   53.5389 H     1 UNL  0.0638
@<TRIPOS>BOND
    1     2     1 am
    2     3     2  2
    3     4     2  1
    4     5     4 ar
    5     6     5 ar
    6     7     6 ar
    7     8     7 ar
    8     9     8  1
    9    10     9 ar
   10    11    10 ar
   11    12    11  1
   12    13    12  1
   13    14    13 ar
   14    15    14 ar
   15    16    15 ar
   16    17    16  1
   17    18    17  1
   18    19    18  1
   19    20    18  1
   20    21    18  1
   21    22    16 ar
   22    23    22 ar
   23    23    13 ar
   24    24    11 ar
   25    25    24 ar
   26    26    25 ar
   27    26     9 ar
   28    27     4 ar
   29    27     8 ar
   30     1    28  1
   31     1    29  1
   32     5    30  1
   33     6    31  1
   34     7    32  1
   35    10    33  1
   36    12    34  1
   37    14    35  1
   38    15    36  1
   39    22    37  1
   40    23    38  1
   41    25    39  1
   42    27    40  1