@<TRIPOS>MOLECULE
UNK
50 53 0 0 0
SMALL
GASTEIGER

@<TRIPOS>ATOM
   1    O       25.5350   47.2630   63.8610 O.2   1 UNL -0.2689
   2    C       25.7400   46.4700   62.9020 C.2   1 UNL  0.2567
   3    N       27.0960   46.1310   62.5640 N.am  1 UNL -0.3219
   4    C       27.5440   45.7950   61.2390 C.ar  1 UNL  0.0413
   5    C       27.8590   46.8110   60.3420 C.ar  1 UNL -0.0348
   6    C       28.2930   46.4950   59.0580 C.ar  1 UNL -0.0175
   7    C       28.4050   45.1580   58.6890 C.ar  1 UNL  0.1291
   8    O       28.8240   44.8390   57.4470 O.3   1 UNL -0.4058
   9    C       30.1740   44.5650   57.0780 C.3   1 UNL  0.5726
  10    F       30.6540   43.4840   57.7950 F     1 UNL -0.1323
  11    F       30.9500   45.6710   57.3660 F     1 UNL -0.1323
  12    F       30.2550   44.3060   55.7220 F     1 UNL -0.1323
  13    C       28.0910   44.1360   59.5790 C.ar  1 UNL -0.0175
  14    C       27.6580   44.4610   60.8610 C.ar  1 UNL -0.0348
  15    C       24.6070   45.8980   62.2000 C.ar  1 UNL  0.0588
  16    C       23.6990   45.0600   62.8390 C.ar  1 UNL  0.0421
  17    N       22.6550   44.5400   62.1750 N.ar  1 UNL -0.2378
  18    C       22.4480   44.8050   60.8770 C.ar  1 UNL  0.1362
  19    N       21.3500   44.2450   60.2150 N.2   1 UNL -0.3534
  20    C       21.1700   42.8170   59.9420 C.3   1 UNL  0.0218
  21    C       19.6570   42.7100   59.8660 C.3   1 UNL -0.0075
  22    C       19.2900   43.9500   59.0830 C.3   1 UNL  0.0732
  23    O       17.9430   44.2860   59.2840 O.3   1 UNL -0.3912
  24    C       20.2050   44.9930   59.6860 C.3   1 UNL  0.0453
  25    C       23.3260   45.6360   60.1880 C.ar  1 UNL  0.0282
  26    C       23.1350   45.9460   58.7840 C.ar  1 UNL  0.0221
  27    C       22.8480   47.2420   58.3710 C.ar  1 UNL  0.0382
  28    N       22.6770   47.5080   57.0680 N.ar  1 UNL -0.2442
  29    C       22.7760   46.5410   56.1430 C.ar  1 UNL  0.1148
  30    N       23.0530   45.2830   56.5160 N.ar  1 UNL -0.2442
  31    C       23.2340   44.9640   57.8040 C.ar  1 UNL  0.0382
  32    C       24.4150   46.1890   60.8540 C.ar  1 UNL -0.0362
  33    H       27.7936   46.1286   63.3218 H     1 UNL  0.1698
  34    H       27.7650   47.8635   60.6476 H     1 UNL  0.0646
  35    H       28.5445   47.2926   58.3434 H     1 UNL  0.0663
  36    H       28.1839   43.0835   59.2731 H     1 UNL  0.0663
  37    H       27.4059   43.6633   61.5753 H     1 UNL  0.0646
  38    H       23.8386   44.8202   63.9034 H     1 UNL  0.0849
  39    H       21.6413   42.5274   58.9912 H     1 UNL  0.0494
  40    H       21.6286   42.1563   60.6924 H     1 UNL  0.0494
  41    H       19.3475   41.7971   59.3360 H     1 UNL  0.0312
  42    H       19.1681   42.6470   60.8494 H     1 UNL  0.0312
  43    H       19.4057   43.8384   57.9948 H     1 UNL  0.0620
  44    H       17.7559   44.3327   60.2550 H     1 UNL  0.2105
  45    H       20.5338   45.7077   58.9172 H     1 UNL  0.0521
  46    H       19.7001   45.5775   60.4693 H     1 UNL  0.0521
  47    H       22.7612   48.0493   59.1132 H     1 UNL  0.0848
  48    H       22.6300   46.7800   55.0793 H     1 UNL  0.1062
  49    H       23.4609   43.9255   58.0868 H     1 UNL  0.0848
  50    H       25.1161   46.8488   60.3219 H     1 UNL  0.0640
@<TRIPOS>BOND
    1     2     1  2
    2     3     2 am
    3     4     3  1
    4     5     4 ar
    5     6     5 ar
    6     7     6 ar
    7     8     7  1
    8     9     8  1
    9    10     9  1
   10    11     9  1
   11    12     9  1
   12    13     7 ar
   13    14    13 ar
   14    14     4 ar
   15    15     2  1
   16    16    15 ar
   17    17    16 ar
   18    18    17 ar
   19    19    18  1
   20    20    19  1
   21    21    20  1
   22    22    21  1
   23    23    22  1
   24    24    22  1
   25    24    19  1
   26    25    18 ar
   27    26    25  1
   28    27    26 ar
   29    28    27 ar
   30    29    28 ar
   31    30    29 ar
   32    31    30 ar
   33    31    26 ar
   34    32    25 ar
   35    32    15 ar
   36     3    33  1
   37     5    34  1
   38     6    35  1
   39    13    36  1
   40    14    37  1
   41    16    38  1
   42    20    39  1
   43    20    40  1
   44    21    41  1
   45    21    42  1
   46    22    43  1
   47    23    44  1
   48    24    45  1
   49    24    46  1
   50    27    47  1
   51    29    48  1
   52    31    49  1
   53    32    50  1