@<TRIPOS>MOLECULE
UNK
48 51 0 0 0
SMALL
GASTEIGER

@<TRIPOS>ATOM
   1    C      -16.2880    8.5780   27.1730 C.3   1 UNL  0.0775
   2    O      -15.1430    8.2530   26.3940 O.3   1 UNL -0.4961
   3    C      -14.0930    7.5830   26.9150 C.ar  1 UNL  0.1263
   4    C      -13.4320    8.1270   28.0120 C.ar  1 UNL -0.0193
   5    C      -12.3470    7.4600   28.5710 C.ar  1 UNL -0.0585
   6    C      -11.9220    6.2500   28.0340 C.ar  1 UNL -0.0614
   7    C      -12.5820    5.7050   26.9370 C.ar  1 UNL -0.0506
   8    C      -13.6670    6.3720   26.3770 C.ar  1 UNL  0.0259
   9    C      -14.3550    5.8040   25.2330 C.ar  1 UNL  0.0124
  10    C      -15.7030    5.6160   25.1440 C.ar  1 UNL  0.0112
  11    N      -15.9470    5.0640   23.9210 N.ar  1 UNL -0.3455
  12    C      -14.7620    4.9010   23.2430 C.ar  1 UNL  0.1374
  13    N      -14.4340    4.4160   22.0340 N.ar  1 UNL -0.2379
  14    C      -13.1640    4.3740   21.6000 C.ar  1 UNL  0.0372
  15    C      -12.1100    4.8340   22.3850 C.ar  1 UNL  0.0023
  16    C      -10.7260    4.8100   21.9540 C.ar  1 UNL  0.0024
  17    C       -9.7880    5.6940   22.4770 C.ar  1 UNL  0.0347
  18    N       -8.5120    5.6570   22.0660 N.ar  1 UNL -0.2633
  19    C       -8.0990    4.7720   21.1460 C.ar  1 UNL  0.0396
  20    C       -8.9940    3.8640   20.5910 C.ar  1 UNL  0.0584
  21    C       -8.5590    2.8790   19.5740 C.2   1 UNL  0.2544
  22    O       -7.9550    3.2880   18.5440 O.2   1 UNL -0.2690
  23    N       -8.8210    1.4700   19.7220 N.am  1 UNL -0.3447
  24    C       -7.7750    0.5380   20.1510 C.3   1 UNL  0.0091
  25    C      -10.1460    0.9490   19.3830 C.3   1 UNL  0.0091
  26    C      -10.3240    3.8820   20.9990 C.ar  1 UNL -0.0384
  27    C      -12.4130    5.3410   23.6420 C.ar  1 UNL -0.0411
  28    C      -13.7450    5.3600   24.0370 C.ar  1 UNL  0.0273
  29    H      -16.0368    8.5067   28.2416 H     1 UNL  0.0669
  30    H      -16.6111    9.6033   26.9399 H     1 UNL  0.0669
  31    H      -17.1016    7.8753   26.9399 H     1 UNL  0.0669
  32    H      -13.7675    9.0845   28.4371 H     1 UNL  0.0662
  33    H      -11.8249    7.8900   29.4384 H     1 UNL  0.0624
  34    H      -11.0636    5.7233   28.4766 H     1 UNL  0.0623
  35    H      -12.2461    4.7473   26.5127 H     1 UNL  0.0631
  36    H      -16.4507    5.8626   25.9122 H     1 UNL  0.0823
  37    H      -16.8772    4.8082   23.5602 H     1 UNL  0.1675
  38    H      -12.9512    3.9665   20.6006 H     1 UNL  0.0847
  39    H      -10.0956    6.4300   23.2345 H     1 UNL  0.0847
  40    H       -7.0458    4.7647   20.8288 H     1 UNL  0.0848
  41    H       -7.7400    0.5068   21.2500 H     1 UNL  0.0457
  42    H       -7.9974   -0.4668   19.7625 H     1 UNL  0.0457
  43    H       -6.8024    0.8743   19.7625 H     1 UNL  0.0457
  44    H      -10.7015    0.7306   20.3070 H     1 UNL  0.0457
  45    H      -10.6948    1.6983   18.7936 H     1 UNL  0.0457
  46    H      -10.0375    0.0266   18.7936 H     1 UNL  0.0457
  47    H      -11.0477    3.1721   20.5722 H     1 UNL  0.0639
  48    H      -11.6208    5.7169   24.3061 H     1 UNL  0.0638
@<TRIPOS>BOND
    1     2     1  1
    2     3     2  1
    3     4     3 ar
    4     5     4 ar
    5     6     5 ar
    6     7     6 ar
    7     8     7 ar
    8     8     3 ar
    9     9     8  1
   10    10     9 ar
   11    11    10 ar
   12    12    11 ar
   13    13    12 ar
   14    14    13 ar
   15    15    14 ar
   16    16    15  1
   17    17    16 ar
   18    18    17 ar
   19    19    18 ar
   20    20    19 ar
   21    21    20  1
   22    22    21  2
   23    23    21 am
   24    24    23  1
   25    25    23  1
   26    26    20 ar
   27    26    16 ar
   28    27    15 ar
   29    28    27 ar
   30    28    12 ar
   31    28     9 ar
   32     1    29  1
   33     1    30  1
   34     1    31  1
   35     4    32  1
   36     5    33  1
   37     6    34  1
   38     7    35  1
   39    10    36  1
   40    11    37  1
   41    14    38  1
   42    17    39  1
   43    19    40  1
   44    24    41  1
   45    24    42  1
   46    24    43  1
   47    25    44  1
   48    25    45  1
   49    25    46  1
   50    26    47  1
   51    27    48  1