@<TRIPOS>MOLECULE
UNK
47 49 0 0 0
SMALL
GASTEIGER

@<TRIPOS>ATOM
   1    O       20.7950   44.3950   53.5910 O.2   1 UNL -0.2689
   2    C       21.1000   43.4920   54.4180 C.2   1 UNL  0.2552
   3    N       20.3490   42.2660   54.4430 N.am  1 UNL -0.3220
   4    C       19.7110   41.6960   53.2870 C.ar  1 UNL  0.0413
   5    C       20.4910   41.1520   52.2710 C.ar  1 UNL -0.0348
   6    C       19.8820   40.5980   51.1480 C.ar  1 UNL -0.0175
   7    C       18.4940   40.5970   51.0590 C.ar  1 UNL  0.1291
   8    O       17.8920   40.0640   49.9750 O.3   1 UNL -0.4058
   9    C       17.5730   38.6840   49.8060 C.3   1 UNL  0.5726
  10    F       16.7140   38.2670   50.8060 F     1 UNL -0.1323
  11    F       16.9930   38.4780   48.5670 F     1 UNL -0.1323
  12    F       18.7370   37.9430   49.8810 F     1 UNL -0.1323
  13    C       17.7070   41.1400   52.0700 C.ar  1 UNL -0.0175
  14    C       18.3230   41.6910   53.1890 C.ar  1 UNL -0.0348
  15    C       22.1710   43.7260   55.3670 C.ar  1 UNL  0.0402
  16    C       21.8920   43.7670   56.7290 C.ar  1 UNL -0.0494
  17    C       22.9320   43.9930   57.6250 C.ar  1 UNL -0.0610
  18    C       24.2360   44.1750   57.1760 C.ar  1 UNL -0.0534
  19    C       24.4930   44.1290   55.8100 C.ar  1 UNL  0.0070
  20    C       25.9070   44.3250   55.3100 C.3   1 UNL  0.1029
  21    N       26.0070   44.1350   53.8560 N.4   1 UNL -0.3274
  22    C       27.4270   43.9690   53.5120 C.3   1 UNL  0.1012
  23    C       27.6140   44.1270   52.0110 C.3   1 UNL  0.0960
  24    O       26.3870   43.9650   51.3110 O.3   1 UNL -0.3698
  25    C       25.4200   44.9530   51.6470 C.3   1 UNL  0.0960
  26    C       25.4360   45.2790   53.1310 C.3   1 UNL  0.1012
  27    C       23.4680   43.9050   54.8960 C.ar  1 UNL -0.0406
  28    H       20.2631   41.7675   55.3402 H     1 UNL  0.1698
  29    H       21.5878   41.1596   52.3550 H     1 UNL  0.0646
  30    H       20.4916   40.1661   50.3406 H     1 UNL  0.0663
  31    H       16.6103   41.1336   51.9853 H     1 UNL  0.0663
  32    H       17.7130   42.1226   53.9962 H     1 UNL  0.0646
  33    H       20.8639   43.6228   57.0925 H     1 UNL  0.0631
  34    H       22.7202   44.0283   58.7038 H     1 UNL  0.0623
  35    H       25.0524   44.3528   57.8914 H     1 UNL  0.0628
  36    H       26.2334   45.3457   55.5583 H     1 UNL  0.0979
  37    H       26.5470   43.5739   55.7961 H     1 UNL  0.0979
  38    H       25.4716   43.2994   53.5804 H     1 UNL  0.3480
  39    H       28.0216   44.7314   54.0366 H     1 UNL  0.0949
  40    H       27.7601   42.9658   53.8164 H     1 UNL  0.0949
  41    H       28.0129   45.1312   51.8047 H     1 UNL  0.0627
  42    H       28.3116   43.3491   51.6673 H     1 UNL  0.0627
  43    H       25.6361   45.8699   51.0790 H     1 UNL  0.0627
  44    H       24.4253   44.5563   51.3956 H     1 UNL  0.0627
  45    H       26.0510   46.1738   53.3073 H     1 UNL  0.0949
  46    H       24.4127   45.4749   53.4839 H     1 UNL  0.0949
  47    H       23.6799   43.8700   53.8172 H     1 UNL  0.0636
@<TRIPOS>BOND
    1     2     1  2
    2     3     2 am
    3     4     3  1
    4     5     4 ar
    5     6     5 ar
    6     7     6 ar
    7     8     7  1
    8     9     8  1
    9    10     9  1
   10    11     9  1
   11    12     9  1
   12    13     7 ar
   13    14    13 ar
   14    14     4 ar
   15    15     2  1
   16    16    15 ar
   17    17    16 ar
   18    18    17 ar
   19    19    18 ar
   20    20    19  1
   21    21    20  1
   22    22    21  1
   23    23    22  1
   24    24    23  1
   25    25    24  1
   26    26    25  1
   27    26    21  1
   28    27    19 ar
   29    27    15 ar
   30     3    28  1
   31     5    29  1
   32     6    30  1
   33    13    31  1
   34    14    32  1
   35    16    33  1
   36    17    34  1
   37    18    35  1
   38    20    36  1
   39    20    37  1
   40    21    38  1
   41    22    39  1
   42    22    40  1
   43    23    41  1
   44    23    42  1
   45    25    43  1
   46    25    44  1
   47    26    45  1
   48    26    46  1
   49    27    47  1