@<TRIPOS>MOLECULE
UNK
70 74 0 0 0
SMALL
GASTEIGER

@<TRIPOS>ATOM
   1    C       24.2890   34.6360   52.3610 C.3   1 UNL -0.0377
   2    C       23.7420   33.2210   52.2700 C.ar  1 UNL -0.0273
   3    C       24.1750   32.4010   51.2340 C.ar  1 UNL -0.0552
   4    C       23.6920   31.1010   51.1260 C.ar  1 UNL -0.0381
   5    C       22.7750   30.6340   52.0630 C.ar  1 UNL  0.0431
   6    N       22.2680   29.2920   51.9610 N.am  1 UNL -0.3219
   7    C       21.1360   28.9260   51.1530 C.2   1 UNL  0.2552
   8    O       20.8820   29.5770   50.1030 O.2   1 UNL -0.2689
   9    C       20.2920   27.7600   51.5120 C.ar  1 UNL  0.0397
  10    C       19.6710   27.0320   50.5020 C.ar  1 UNL -0.0490
  11    C       18.8770   25.9350   50.8230 C.ar  1 UNL -0.0526
  12    C       18.7180   25.5820   52.1600 C.ar  1 UNL  0.0062
  13    C       17.8530   24.3860   52.5250 C.3   1 UNL  0.1031
  14    N       18.6110   23.1130   52.4660 N.4   1 UNL -0.3219
  15    C       18.0820   22.2800   51.3760 C.3   1 UNL  0.1273
  16    C       18.7400   20.9070   51.3880 C.3   1 UNL  0.1268
  17    N       18.6270   20.2560   52.7050 N.4   1 UNL -0.3281
  18    C       17.9530   18.9540   52.5920 C.3   1 UNL  0.0668
  19    C       17.9480   21.0750   53.7220 C.3   1 UNL  0.1268
  20    C       18.5520   22.4670   53.7900 C.3   1 UNL  0.1273
  21    C       19.3370   26.3070   53.1720 C.ar  1 UNL -0.0526
  22    C       20.1300   27.4030   52.8460 C.ar  1 UNL -0.0490
  23    C       22.3360   31.4480   53.1020 C.ar  1 UNL -0.0145
  24    C       22.8240   32.7480   53.2030 C.ar  1 UNL  0.0459
  25    N       22.3920   33.5790   54.2440 N.pl3 1 UNL -0.3238
  26    C       21.2730   34.4630   54.1030 C.ar  1 UNL  0.2272
  27    N       20.9320   35.2450   55.1370 N.ar  1 UNL -0.2213
  28    C       19.8940   36.0910   55.0620 C.ar  1 UNL  0.0330
  29    C       19.1520   36.1640   53.8880 C.ar  1 UNL -0.0171
  30    C       19.5140   35.3490   52.8200 C.ar  1 UNL  0.0773
  31    C       18.7450   35.4180   51.5910 C.ar  1 UNL  0.0187
  32    C       17.7500   36.3810   51.4600 C.ar  1 UNL -0.0497
  33    C       17.0160   36.4450   50.2810 C.ar  1 UNL -0.0431
  34    C       17.3030   35.5390   49.2650 C.ar  1 UNL  0.0268
  35    N       18.2670   34.6190   49.4150 N.ar  1 UNL -0.2640
  36    C       18.9890   34.5370   50.5430 C.ar  1 UNL  0.0362
  37    N       20.5640   34.5240   52.9640 N.ar  1 UNL -0.2127
  38    H       24.3986   34.9195   53.4182 H     1 UNL  0.0280
  39    H       25.2699   34.6825   51.8653 H     1 UNL  0.0280
  40    H       23.5944   35.3302   51.8653 H     1 UNL  0.0280
  41    H       24.9002   32.7806   50.4991 H     1 UNL  0.0627
  42    H       24.0315   30.4485   50.3081 H     1 UNL  0.0645
  43    H       22.7424   28.5513   52.4969 H     1 UNL  0.1698
  44    H       19.8075   27.3234   49.4501 H     1 UNL  0.0631
  45    H       18.3817   25.3546   50.0307 H     1 UNL  0.0628
  46    H       17.4695   24.5238   53.5467 H     1 UNL  0.0979
  47    H       17.0314   24.3261   51.7960 H     1 UNL  0.0979
  48    H       19.6057   23.2726   52.2515 H     1 UNL  0.3483
  49    H       16.9959   22.1623   51.5045 H     1 UNL  0.0985
  50    H       18.2987   22.7705   50.4155 H     1 UNL  0.0985
  51    H       18.2518   20.2719   50.6341 H     1 UNL  0.0985
  52    H       19.8087   21.0387   51.1630 H     1 UNL  0.0985
  53    H       19.5968   20.1262   53.0267 H     1 UNL  0.3477
  54    H       17.7483   18.5586   53.5978 H     1 UNL  0.0886
  55    H       17.0056   19.0776   52.0468 H     1 UNL  0.0886
  56    H       18.6009   18.2518   52.0468 H     1 UNL  0.0886
  57    H       16.8817   21.1574   53.4646 H     1 UNL  0.0985
  58    H       18.0709   20.5908   54.7020 H     1 UNL  0.0985
  59    H       17.9384   23.0872   54.4599 H     1 UNL  0.0985
  60    H       19.5815   22.3708   54.1653 H     1 UNL  0.0985
  61    H       19.2007   26.0160   54.2240 H     1 UNL  0.0628
  62    H       20.6254   27.9831   53.6385 H     1 UNL  0.0631
  63    H       21.6105   31.0684   53.8365 H     1 UNL  0.0667
  64    H       22.8959   33.5540   55.1420 H     1 UNL  0.1697
  65    H       19.6313   36.7229   55.9232 H     1 UNL  0.0842
  66    H       18.2972   36.8514   53.8055 H     1 UNL  0.0662
  67    H       17.5460   37.0846   52.2806 H     1 UNL  0.0631
  68    H       16.2237   37.1974   50.1540 H     1 UNL  0.0639
  69    H       16.7314   35.5778   48.3260 H     1 UNL  0.0840
  70    H       19.7742   33.7726   50.6388 H     1 UNL  0.0847
@<TRIPOS>BOND
    1     2     1  1
    2     3     2 ar
    3     4     3 ar
    4     5     4 ar
    5     6     5  1
    6     7     6 am
    7     8     7  2
    8     9     7  1
    9    10     9 ar
   10    11    10 ar
   11    12    11 ar
   12    13    12  1
   13    14    13  1
   14    15    14  1
   15    16    15  1
   16    17    16  1
   17    18    17  1
   18    19    17  1
   19    20    19  1
   20    20    14  1
   21    21    12 ar
   22    22    21 ar
   23    22     9 ar
   24    23     5 ar
   25    24    23 ar
   26    24     2 ar
   27    25    24  1
   28    26    25  1
   29    27    26 ar
   30    28    27 ar
   31    29    28 ar
   32    30    29 ar
   33    31    30  1
   34    32    31 ar
   35    33    32 ar
   36    34    33 ar
   37    35    34 ar
   38    36    35 ar
   39    36    31 ar
   40    37    30 ar
   41    37    26 ar
   42     1    38  1
   43     1    39  1
   44     1    40  1
   45     3    41  1
   46     4    42  1
   47     6    43  1
   48    10    44  1
   49    11    45  1
   50    13    46  1
   51    13    47  1
   52    14    48  1
   53    15    49  1
   54    15    50  1
   55    16    51  1
   56    16    52  1
   57    17    53  1
   58    18    54  1
   59    18    55  1
   60    18    56  1
   61    19    57  1
   62    19    58  1
   63    20    59  1
   64    20    60  1
   65    21    61  1
   66    22    62  1
   67    23    63  1
   68    25    64  1
   69    28    65  1
   70    29    66  1
   71    32    67  1
   72    33    68  1
   73    34    69  1
   74    36    70  1