@<TRIPOS>MOLECULE
UNK
47 50 0 0 0
SMALL
GASTEIGER

@<TRIPOS>ATOM
   1    C       13.3810   61.7920   13.3160 C.3   1 UNL -0.0377
   2    C       12.7570   60.8620   14.3440 C.ar  1 UNL -0.0273
   3    C       13.2520   59.5680   14.4640 C.ar  1 UNL -0.0552
   4    C       12.7000   58.6950   15.3960 C.ar  1 UNL -0.0381
   5    C       11.6540   59.1310   16.2020 C.ar  1 UNL  0.0431
   6    N       11.0910   58.2610   17.1440 N.am  1 UNL -0.3219
   7    C       10.6910   56.9140   16.8500 C.2   1 UNL  0.2567
   8    O        9.7330   56.4100   17.4970 O.2   1 UNL -0.2689
   9    C       11.4030   56.0880   15.8460 C.ar  1 UNL  0.0580
  10    C       11.1140   56.2550   14.4950 C.ar  1 UNL -0.0464
  11    C       11.7850   55.4800   13.5560 C.ar  1 UNL -0.0430
  12    C       12.7280   54.5590   14.0000 C.ar  1 UNL  0.0268
  13    N       12.9890   54.4160   15.3080 N.ar  1 UNL -0.2639
  14    C       12.3550   55.1520   16.2340 C.ar  1 UNL  0.0395
  15    C       11.1530   60.4240   16.0890 C.ar  1 UNL -0.0145
  16    C       11.7100   61.2910   15.1540 C.ar  1 UNL  0.0459
  17    N       11.2030   62.6320   15.0250 N.pl3 1 UNL -0.3238
  18    C        9.9810   63.0370   15.5770 C.ar  1 UNL  0.2272
  19    N        9.1460   63.7750   14.8300 N.ar  1 UNL -0.2213
  20    C        7.9640   64.1910   15.3070 C.ar  1 UNL  0.0330
  21    C        7.5890   63.8540   16.6030 C.ar  1 UNL -0.0171
  22    C        8.4620   63.0890   17.3700 C.ar  1 UNL  0.0773
  23    C        8.0790   62.7320   18.7240 C.ar  1 UNL  0.0187
  24    C        8.3640   63.6060   19.7680 C.ar  1 UNL -0.0497
  25    C        7.9950   63.2610   21.0630 C.ar  1 UNL -0.0431
  26    C        7.3500   62.0470   21.2740 C.ar  1 UNL  0.0268
  27    N        7.0850   61.2210   20.2500 N.ar  1 UNL -0.2640
  28    C        7.4310   61.5300   18.9920 C.ar  1 UNL  0.0362
  29    N        9.6300   62.7050   16.8300 N.ar  1 UNL -0.2127
  30    H       13.9222   62.5987   13.8321 H     1 UNL  0.0280
  31    H       14.0820   61.2247   12.6860 H     1 UNL  0.0280
  32    H       12.5903   62.2256   12.6860 H     1 UNL  0.0280
  33    H       14.0804   59.2345   13.8217 H     1 UNL  0.0627
  34    H       13.0871   57.6701   15.4944 H     1 UNL  0.0645
  35    H       10.9560   58.6080   18.1043 H     1 UNL  0.1698
  36    H       10.3631   56.9919   14.1738 H     1 UNL  0.0632
  37    H       11.5742   55.5930   12.4823 H     1 UNL  0.0639
  38    H       13.2672   53.9393   13.2684 H     1 UNL  0.0840
  39    H       12.5886   55.0147   17.3001 H     1 UNL  0.0848
  40    H       10.3252   60.7574   16.7321 H     1 UNL  0.0667
  41    H       11.7624   63.3229   14.5048 H     1 UNL  0.1697
  42    H        7.2948   64.7953   14.6769 H     1 UNL  0.0842
  43    H        6.6233   64.1850   17.0127 H     1 UNL  0.0662
  44    H        8.8757   64.5596   19.5710 H     1 UNL  0.0631
  45    H        8.2091   63.9355   21.9051 H     1 UNL  0.0639
  46    H        7.0532   61.7601   22.2936 H     1 UNL  0.0840
  47    H        7.2027   60.8334   18.1718 H     1 UNL  0.0847
@<TRIPOS>BOND
    1     2     1  1
    2     3     2 ar
    3     4     3 ar
    4     5     4 ar
    5     6     5  1
    6     7     6 am
    7     8     7  2
    8     9     7  1
    9    10     9 ar
   10    11    10 ar
   11    12    11 ar
   12    13    12 ar
   13    14    13 ar
   14    14     9 ar
   15    15     5 ar
   16    16    15 ar
   17    16     2 ar
   18    17    16  1
   19    18    17  1
   20    19    18 ar
   21    20    19 ar
   22    21    20 ar
   23    22    21 ar
   24    23    22  1
   25    24    23 ar
   26    25    24 ar
   27    26    25 ar
   28    27    26 ar
   29    28    27 ar
   30    28    23 ar
   31    29    18 ar
   32    29    22 ar
   33     1    30  1
   34     1    31  1
   35     1    32  1
   36     3    33  1
   37     4    34  1
   38     6    35  1
   39    10    36  1
   40    11    37  1
   41    12    38  1
   42    14    39  1
   43    15    40  1
   44    17    41  1
   45    20    42  1
   46    21    43  1
   47    24    44  1
   48    25    45  1
   49    26    46  1
   50    28    47  1