@<TRIPOS>MOLECULE
UNK
20 20 0 0 0
SMALL
GASTEIGER

@<TRIPOS>ATOM
   1    C       -4.2370   68.3410   32.9790 C.3   1 UNL  0.0810
   2    O       -3.9020   66.9590   32.9550 O.3   1 UNL -0.4654
   3    C       -3.9180   66.1990   31.7810 C.2   1 UNL  0.3395
   4    O       -4.2220   66.7390   30.6820 O.2   1 UNL -0.2461
   5    C       -3.5240   64.8040   31.8290 C.ar  1 UNL  0.0826
   6    C       -4.2320   63.8850   31.0600 C.ar  1 UNL -0.0441
   7    C       -3.8790   62.5400   31.0840 C.ar  1 UNL -0.0425
   8    C       -2.8160   62.1250   31.8800 C.ar  1 UNL  0.0426
   9   Cl       -2.3600   60.4040   31.9140 Cl    1 UNL -0.0843
  10    C       -2.1040   63.0380   32.6510 C.ar  1 UNL -0.0196
  11    C       -2.4610   64.3820   32.6230 C.ar  1 UNL  0.0476
  12    N       -1.7330   65.2870   33.4050 N.2   1 UNL -0.3980
  13    H       -4.3192   68.6803   34.0221 H     1 UNL  0.0670
  14    H       -3.4526   68.9174   32.4667 H     1 UNL  0.0670
  15    H       -5.1983   68.4942   32.4667 H     1 UNL  0.0670
  16    H       -5.0707   64.2225   30.4333 H     1 UNL  0.0633
  17    H       -4.4359   61.8099   30.4783 H     1 UNL  0.0639
  18    H       -1.2656   62.6999   33.2777 H     1 UNL  0.0661
  19    H       -1.9799   66.2870   33.3997 H     1 UNL  0.1562
  20    H       -0.9506   64.9528   33.9856 H     1 UNL  0.1562
@<TRIPOS>BOND
    1     2     1  1
    2     3     2  1
    3     4     3  2
    4     5     3  1
    5     6     5 ar
    6     7     6 ar
    7     8     7 ar
    8     9     8  1
    9    10     8 ar
   10    11    10 ar
   11    11     5 ar
   12    12    11  1
   13     1    13  1
   14     1    14  1
   15     1    15  1
   16     6    16  1
   17     7    17  1
   18    10    18  1
   19    12    19  1
   20    12    20  1