@<TRIPOS>MOLECULE
UNK
73 73 0 0 0
SMALL
GASTEIGER

@<TRIPOS>ATOM
   1    C       21.4340  136.2530   -4.8590 C.3   1 UNL -0.0649
   2    C       21.5860  134.8560   -4.2530 C.3   1 UNL -0.0478
   3    C       21.8810  134.8940   -2.7300 C.3   1 UNL  0.0101
   4    C       23.3740  135.1500   -2.4470 C.3   1 UNL -0.0568
   5    C       21.2990  133.6420   -1.9680 C.3   1 UNL  0.1123
   6    C       19.7570  133.7320   -1.8830 C.3   1 UNL  0.0998
   7    O       19.1780  132.5710   -2.4450 O.3   1 UNL -0.3619
   8    C       17.8470  132.8240   -2.8640 C.3   1 UNL  0.1401
   9    C       16.9130  131.7990   -2.2090 C.3   1 UNL  0.0077
  10    C       15.4930  131.9910   -2.6780 C.ar  1 UNL -0.0449
  11    C       14.7290  130.8790   -3.0170 C.ar  1 UNL -0.0589
  12    C       13.4200  131.0630   -3.4500 C.ar  1 UNL -0.0620
  13    C       12.8820  132.3420   -3.5430 C.ar  1 UNL -0.0622
  14    C       13.6540  133.4480   -3.2020 C.ar  1 UNL -0.0620
  15    C       14.9640  133.2740   -2.7680 C.ar  1 UNL -0.0589
  16    C       17.7590  132.6970   -4.3620 C.2   1 UNL  0.2495
  17    O       18.3440  131.7390   -4.9380 O.2   1 UNL -0.2721
  18    N       16.9860  133.6390   -5.1220 N.am  1 UNL -0.3458
  19    C       16.8310  133.5510   -6.5780 C.3   1 UNL  0.0696
  20    C       16.9610  134.9450   -7.2190 C.3   1 UNL -0.0133
  21    C       18.1890  135.6980   -6.6960 C.3   1 UNL  0.0522
  22    S       18.8220  136.8370   -7.9180 S.o2  1 UNL  0.1471
  23    C       17.7630  138.2620   -8.0510 C.3   1 UNL  0.0388
  24    O       20.2070  137.2780   -7.5360 O.2   1 UNL -0.2291
  25    O       18.8760  136.1450   -9.2500 O.2   1 UNL -0.2291
  26    C       15.4950  132.9480   -6.9060 C.2   1 UNL  0.0639
  27    O       14.4450  133.3900   -6.3690 O.co2 1 UNL -0.5479
  28    O       15.4110  131.9000   -7.8140 O.co2 1 UNL -0.5479
  29    N       21.8570  133.4300   -0.6060 N.4   1 UNL -0.3368
  30    C       21.1180  132.4270    0.1870 C.3   1 UNL  0.1263
  31    C       20.9270  132.8710    1.6630 C.3   1 UNL  0.1119
  32    N       22.1810  132.7290    2.4180 N.4   1 UNL -0.3521
  33    C       19.8120  132.0480    2.3430 C.3   1 UNL -0.1175
  34    S       18.6090  133.0980    3.1390 S.3   1 UNL -0.7867
  35    H       21.3532  136.9960   -4.0519 H     1 UNL  0.0230
  36    H       22.3127  136.4807   -5.4804 H     1 UNL  0.0230
  37    H       20.5269  136.2864   -5.4804 H     1 UNL  0.0230
  38    H       20.6526  134.2975   -4.4170 H     1 UNL  0.0269
  39    H       22.4415  134.3709   -4.7456 H     1 UNL  0.0269
  40    H       21.3394  135.7563   -2.3141 H     1 UNL  0.0362
  41    H       23.5415  135.1787   -1.3602 H     1 UNL  0.0235
  42    H       23.9749  134.3418   -2.8894 H     1 UNL  0.0235
  43    H       23.6713  136.1122   -2.8894 H     1 UNL  0.0235
  44    H       21.6086  132.7721   -2.5659 H     1 UNL  0.0988
  45    H       19.4537  133.8179   -0.8291 H     1 UNL  0.0631
  46    H       19.4134  134.6157   -2.4407 H     1 UNL  0.0631
  47    H       17.5509  133.8409   -2.5668 H     1 UNL  0.0711
  48    H       17.2467  130.7853   -2.4755 H     1 UNL  0.0348
  49    H       16.9457  131.9390   -1.1184 H     1 UNL  0.0348
  50    H       15.1545  129.8673   -2.9436 H     1 UNL  0.0626
  51    H       12.8064  130.1911   -3.7206 H     1 UNL  0.0623
  52    H       11.8460  132.4792   -3.8862 H     1 UNL  0.0623
  53    H       13.2286  134.4597   -3.2756 H     1 UNL  0.0623
  54    H       15.5778  134.1459   -2.4976 H     1 UNL  0.0626
  55    H       16.5201  134.4101   -4.6229 H     1 UNL  0.1637
  56    H       17.6265  132.9096   -6.9851 H     1 UNL  0.0593
  57    H       17.0518  134.8289   -8.3091 H     1 UNL  0.0302
  58    H       16.0651  135.5272   -6.9574 H     1 UNL  0.0302
  59    H       17.9068  136.2608   -5.7940 H     1 UNL  0.0434
  60    H       18.9748  134.9632   -6.4667 H     1 UNL  0.0434
  61    H       17.4987  138.6177   -7.0442 H     1 UNL  0.0396
  62    H       18.2889  139.0601   -8.5955 H     1 UNL  0.0396
  63    H       16.8471  137.9887   -8.5955 H     1 UNL  0.0396
  64    H       22.8334  133.1158   -0.6996 H     1 UNL  0.3463
  65    H       21.7799  134.3269   -0.1054 H     1 UNL  0.3463
  66    H       20.1282  132.2749   -0.2681 H     1 UNL  0.0987
  67    H       21.7056  131.4971    0.1874 H     1 UNL  0.0987
  68    H       20.6336  133.9311    1.6589 H     1 UNL  0.1000
  69    H       21.9784  132.7519    3.4276 H     1 UNL  0.3444
  70    H       22.6268  131.8322    2.1776 H     1 UNL  0.3444
  71    H       22.8161  133.5034    2.1776 H     1 UNL  0.3444
  72    H       19.3043  131.4379    1.5814 H     1 UNL  0.0049
  73    H       20.2753  131.4128    3.1123 H     1 UNL  0.0049
@<TRIPOS>BOND
    1     2     1  1
    2     3     2  1
    3     4     3  1
    4     5     3  1
    5     6     5  1
    6     7     6  1
    7     8     7  1
    8     9     8  1
    9    10     9  1
   10    11    10 ar
   11    12    11 ar
   12    13    12 ar
   13    14    13 ar
   14    15    14 ar
   15    15    10 ar
   16    16     8  1
   17    17    16  2
   18    18    16 am
   19    19    18  1
   20    20    19  1
   21    21    20  1
   22    22    21  1
   23    23    22  1
   24    24    22  2
   25    25    22  2
   26    26    19  1
   27    27    26  2
   28    28    26  1
   29    29     5  1
   30    30    29  1
   31    31    30  1
   32    32    31  1
   33    33    31  1
   34    34    33  1
   35     1    35  1
   36     1    36  1
   37     1    37  1
   38     2    38  1
   39     2    39  1
   40     3    40  1
   41     4    41  1
   42     4    42  1
   43     4    43  1
   44     5    44  1
   45     6    45  1
   46     6    46  1
   47     8    47  1
   48     9    48  1
   49     9    49  1
   50    11    50  1
   51    12    51  1
   52    13    52  1
   53    14    53  1
   54    15    54  1
   55    18    55  1
   56    19    56  1
   57    20    57  1
   58    20    58  1
   59    21    59  1
   60    21    60  1
   61    23    61  1
   62    23    62  1
   63    23    63  1
   64    29    64  1
   65    29    65  1
   66    30    66  1
   67    30    67  1
   68    31    68  1
   69    32    69  1
   70    32    70  1
   71    32    71  1
   72    33    72  1
   73    33    73  1