@<TRIPOS>MOLECULE
UNK
58 62 0 0 0
SMALL
GASTEIGER

@<TRIPOS>ATOM
   1    C       17.0330  137.7150   -4.8890 C.3   1 UNL  0.0797
   2    N       18.1690  138.2530   -5.6520 N.ar  1 UNL -0.2308
   3    C       18.1930  138.4480   -7.0020 C.ar  1 UNL  0.2412
   4    N       19.3710  138.9420   -7.3150 N.ar  1 UNL -0.2497
   5    C       20.1140  139.0690   -6.1760 C.ar  1 UNL  0.1374
   6    C       19.3630  138.6370   -5.1220 C.ar  1 UNL  0.2128
   7    C       19.7840  138.5990   -3.6390 C.3   1 UNL  0.2115
   8    N       20.8840  139.5840   -3.5120 N.4   1 UNL -0.3381
   9    C       20.2150  137.1980   -3.2340 C.ar  1 UNL  0.0258
  10    C       19.8320  136.1150   -4.0190 C.ar  1 UNL -0.0504
  11    C       20.2190  134.8270   -3.6630 C.ar  1 UNL -0.0430
  12    C       20.9880  134.6420   -2.5190 C.ar  1 UNL  0.0406
  13   Cl       21.4910  133.0000   -2.0500 Cl    1 UNL -0.0843
  14    C       21.3710  135.7240   -1.7340 C.ar  1 UNL -0.0430
  15    C       20.9840  137.0110   -2.0910 C.ar  1 UNL -0.0504
  16    C       18.6130  138.9850   -2.6940 C.ar  1 UNL  0.0265
  17    C       18.2860  140.3220   -2.5170 C.ar  1 UNL -0.0498
  18    C       17.2320  140.6170   -1.6620 C.ar  1 UNL -0.0371
  19    C       16.5290  139.6100   -1.0080 C.ar  1 UNL  0.0515
  20    C       16.8840  138.2840   -1.2090 C.ar  1 UNL  0.0068
  21    C       17.9350  137.9560   -2.0580 C.ar  1 UNL -0.0419
  22    C       16.1530  137.2340   -0.5190 C.ar  1 UNL -0.0035
  23    C       16.4930  135.8330   -0.6930 C.ar  1 UNL -0.0160
  24    C       17.4460  135.2540    0.1380 C.ar  1 UNL -0.0543
  25    C       17.7660  133.9120   -0.0350 C.ar  1 UNL -0.0602
  26    C       17.1490  133.1510   -1.0220 C.ar  1 UNL -0.0435
  27    C       16.1990  133.7510   -1.8420 C.ar  1 UNL  0.0412
  28   Cl       15.3990  132.7960   -3.1130 Cl    1 UNL -0.0843
  29    C       15.8640  135.0920   -1.6870 C.ar  1 UNL -0.0356
  30    C       15.1490  137.4940    0.2990 C.ar  1 UNL  0.0120
  31    C       14.7610  138.8740    0.5180 C.ar  1 UNL  0.2509
  32    O       13.8330  139.1150    1.2730 O.2   1 UNL -0.2694
  33    N       15.4630  139.8920   -0.1430 N.ar  1 UNL -0.3113
  34    C       15.0320  141.2750    0.1170 C.3   1 UNL  0.0148
  35    H       17.2361  137.8112   -3.8122 H     1 UNL  0.0721
  36    H       16.1221  138.2774   -5.1420 H     1 UNL  0.0721
  37    H       16.8910  136.6540   -5.1420 H     1 UNL  0.0721
  38    H       17.3737  138.2309   -7.7032 H     1 UNL  0.1605
  39    H       19.6825  139.1923   -8.2643 H     1 UNL  0.3110
  40    H       21.1428  139.4540   -6.1183 H     1 UNL  0.1140
  41    H       21.0768  139.7567   -2.5151 H     1 UNL  0.3455
  42    H       21.7309  139.2134   -3.9663 H     1 UNL  0.3455
  43    H       20.6088  140.4665   -3.9663 H     1 UNL  0.3455
  44    H       19.2234  136.2771   -4.9208 H     1 UNL  0.0629
  45    H       19.9205  133.9657   -4.2786 H     1 UNL  0.0639
  46    H       21.9793  135.5621   -0.8319 H     1 UNL  0.0639
  47    H       21.2832  137.8722   -1.4755 H     1 UNL  0.0629
  48    H       18.8409  141.1184   -3.0345 H     1 UNL  0.0629
  49    H       16.9475  141.6670   -1.4987 H     1 UNL  0.0645
  50    H       18.2215  136.9066   -2.2211 H     1 UNL  0.0636
  51    H       17.9394  135.8490    0.9207 H     1 UNL  0.0629
  52    H       18.5181  133.4455    0.6183 H     1 UNL  0.0623
  53    H       17.4084  132.0900   -1.1524 H     1 UNL  0.0638
  54    H       15.1129  135.5591   -2.3409 H     1 UNL  0.0645
  55    H       14.6156  136.6765    0.8061 H     1 UNL  0.0688
  56    H       14.9791  141.4446    1.2026 H     1 UNL  0.0462
  57    H       15.7548  141.9742   -0.3286 H     1 UNL  0.0462
  58    H       14.0399  141.4398   -0.3286 H     1 UNL  0.0462
@<TRIPOS>BOND
    1     2     1  1
    2     3     2 ar
    3     4     3 ar
    4     5     4 ar
    5     6     5 ar
    6     6     2 ar
    7     7     6  1
    8     8     7  1
    9     9     7  1
   10    10     9 ar
   11    11    10 ar
   12    12    11 ar
   13    13    12  1
   14    14    12 ar
   15    15    14 ar
   16    15     9 ar
   17    16     7  1
   18    17    16 ar
   19    18    17 ar
   20    19    18 ar
   21    20    19 ar
   22    21    20 ar
   23    21    16 ar
   24    22    20 ar
   25    23    22  1
   26    24    23 ar
   27    25    24 ar
   28    26    25 ar
   29    27    26 ar
   30    28    27  1
   31    29    27 ar
   32    29    23 ar
   33    30    22 ar
   34    31    30 ar
   35    32    31  2
   36    33    31 ar
   37    33    19 ar
   38    34    33  1
   39     1    35  1
   40     1    36  1
   41     1    37  1
   42     3    38  1
   43     4    39  1
   44     5    40  1
   45     8    41  1
   46     8    42  1
   47     8    43  1
   48    10    44  1
   49    11    45  1
   50    14    46  1
   51    15    47  1
   52    17    48  1
   53    18    49  1
   54    21    50  1
   55    24    51  1
   56    25    52  1
   57    26    53  1
   58    29    54  1
   59    30    55  1
   60    34    56  1
   61    34    57  1
   62    34    58  1