@<TRIPOS>MOLECULE
UNK
68 72 0 0 0
SMALL
GASTEIGER

@<TRIPOS>ATOM
   1    C       15.0620  135.2050   -9.0360 C.3   1 UNL  0.0806
   2    O       15.7630  135.7150   -7.9080 O.3   1 UNL -0.4680
   3    C       17.1100  136.0830   -7.9630 C.2   1 UNL  0.3205
   4    O       17.6580  136.3550   -9.0670 O.2   1 UNL -0.2507
   5    C       17.8980  136.1930   -6.6940 C.3   1 UNL  0.1122
   6    N       17.8670  137.5830   -6.1790 N.3   1 UNL -0.1801
   7    C       17.1410  137.7200   -4.8760 C.3   1 UNL  0.0475
   8    C       17.8380  136.8330   -3.8570 C.3   1 UNL -0.0072
   9    C       17.0200  136.9540   -2.5850 C.ar  1 UNL -0.0223
  10    C       17.6570  137.1260   -1.3610 C.ar  1 UNL -0.0490
  11    C       16.8740  137.2730   -0.2190 C.ar  1 UNL -0.0180
  12    C       17.5290  137.4950    1.0560 C.ar  1 UNL -0.0184
  13    C       18.9180  137.4900    1.1220 C.ar  1 UNL -0.0544
  14    C       19.5390  137.7030    2.3480 C.ar  1 UNL -0.0617
  15    C       18.7820  137.9200    3.4930 C.ar  1 UNL -0.0622
  16    C       17.3920  137.9230    3.4180 C.ar  1 UNL -0.0617
  17    C       16.7620  137.7110    2.1960 C.ar  1 UNL -0.0544
  18    C       15.4860  137.2210   -0.2870 C.ar  1 UNL -0.0523
  19    C       14.8840  137.0260   -1.5270 C.ar  1 UNL -0.0378
  20    C       15.6340  136.8880   -2.6900 C.ar  1 UNL  0.0403
  21    N       15.0510  136.7050   -3.9580 N.2   1 UNL -0.3638
  22    C       13.8370  135.8990   -4.1550 C.3   1 UNL  0.0598
  23    C       14.1320  134.4360   -3.9690 C.ar  1 UNL  0.0565
  24    C       14.3760  133.8160   -2.7790 C.ar  1 UNL  0.0499
  25    N       14.5910  132.4980   -3.0540 N.ar  1 UNL -0.2449
  26    C       14.4840  132.3180   -4.3530 C.ar  1 UNL  0.0946
  27    N       14.1920  133.5020   -4.9540 N.ar  1 UNL -0.3361
  28    C       13.9900  133.7330   -6.3930 C.3   1 UNL  0.0125
  29    C       15.6790  137.3720   -5.1110 C.3   1 UNL  0.0353
  30    S       19.5250  138.1860   -6.0780 S.3   1 UNL  0.2624
  31    O       20.2400  138.0510   -7.3940 O.2   1 UNL -0.2052
  32    O       19.4890  139.6480   -5.7280 O.2   1 UNL -0.2052
  33    C       20.4710  137.3330   -4.8640 C.ar  1 UNL  0.1880
  34    C       21.1060  136.1450   -5.0570 C.ar  1 UNL  0.0436
  35    N       21.7060  135.8570   -3.8720 N.ar  1 UNL -0.3391
  36    C       22.5190  134.6660   -3.5850 C.3   1 UNL  0.0122
  37    C       21.4300  136.8600   -2.9950 C.ar  1 UNL  0.0960
  38    N       20.6820  137.7610   -3.5870 N.ar  1 UNL -0.2238
  39    H       14.2164  134.5898   -8.6948 H     1 UNL  0.0670
  40    H       14.6854  136.0417   -9.6427 H     1 UNL  0.0670
  41    H       15.7422  134.5892   -9.6427 H     1 UNL  0.0670
  42    H       17.4655  135.5186   -5.9403 H     1 UNL  0.0564
  43    H       18.9420  135.9144   -6.8997 H     1 UNL  0.0564
  44    H       17.1613  138.7440   -4.4748 H     1 UNL  0.0501
  45    H       17.8558  135.7895   -4.2045 H     1 UNL  0.0334
  46    H       18.8834  137.1370   -3.6996 H     1 UNL  0.0334
  47    H       18.7549  137.1455   -1.2963 H     1 UNL  0.0633
  48    H       19.5180  137.3197    0.2159 H     1 UNL  0.0629
  49    H       20.6371  137.6997    2.4118 H     1 UNL  0.0623
  50    H       19.2811  138.0894    4.4585 H     1 UNL  0.0623
  51    H       16.7922  138.0929    4.3243 H     1 UNL  0.0623
  52    H       15.6639  137.7142    2.1317 H     1 UNL  0.0629
  53    H       14.8756  137.3318    0.6214 H     1 UNL  0.0630
  54    H       13.7867  136.9799   -1.5885 H     1 UNL  0.0645
  55    H       13.0755  136.2092   -3.4243 H     1 UNL  0.0560
  56    H       13.4707  136.0576   -5.1800 H     1 UNL  0.0560
  57    H       14.3956  134.2892   -1.7862 H     1 UNL  0.0860
  58    H       14.6113  131.3570   -4.8729 H     1 UNL  0.1043
  59    H       13.2720  134.5541   -6.5353 H     1 UNL  0.0461
  60    H       14.9496  134.0000   -6.8598 H     1 UNL  0.0461
  61    H       13.5974  132.8176   -6.8598 H     1 UNL  0.0461
  62    H       15.6142  136.7020   -5.9810 H     1 UNL  0.0510
  63    H       15.1398  138.3163   -5.2771 H     1 UNL  0.0510
  64    H       21.1289  135.5442   -5.9782 H     1 UNL  0.0850
  65    H       22.6076  134.5362   -2.4963 H     1 UNL  0.0461
  66    H       22.0370  133.7790   -4.0220 H     1 UNL  0.0461
  67    H       23.5206  134.7918   -4.0220 H     1 UNL  0.0461
  68    H       21.7792  136.9080   -1.9530 H     1 UNL  0.1043
@<TRIPOS>BOND
    1     2     1  1
    2     3     2  1
    3     4     3  2
    4     5     3  1
    5     6     5  1
    6     7     6  1
    7     8     7  1
    8     9     8  1
    9    10     9 ar
   10    11    10 ar
   11    12    11  1
   12    13    12 ar
   13    14    13 ar
   14    15    14 ar
   15    16    15 ar
   16    17    16 ar
   17    17    12 ar
   18    18    11 ar
   19    19    18 ar
   20    20    19 ar
   21    20     9 ar
   22    21    20  1
   23    22    21  1
   24    23    22  1
   25    24    23 ar
   26    25    24 ar
   27    26    25 ar
   28    27    26 ar
   29    27    23 ar
   30    28    27  1
   31    29    21  1
   32    29     7  1
   33    30     6  1
   34    31    30  2
   35    32    30  2
   36    33    30  1
   37    34    33 ar
   38    35    34 ar
   39    36    35  1
   40    37    35 ar
   41    38    37 ar
   42    38    33 ar
   43     1    39  1
   44     1    40  1
   45     1    41  1
   46     5    42  1
   47     5    43  1
   48     7    44  1
   49     8    45  1
   50     8    46  1
   51    10    47  1
   52    13    48  1
   53    14    49  1
   54    15    50  1
   55    16    51  1
   56    17    52  1
   57    18    53  1
   58    19    54  1
   59    22    55  1
   60    22    56  1
   61    24    57  1
   62    26    58  1
   63    28    59  1
   64    28    60  1
   65    28    61  1
   66    29    62  1
   67    29    63  1
   68    34    64  1
   69    36    65  1
   70    36    66  1
   71    36    67  1
   72    37    68  1