@<TRIPOS>MOLECULE
UNK
49 48 0 0 0
SMALL
GASTEIGER

@<TRIPOS>ATOM
   1    C       13.8850  132.8320   -4.2880 C.3   1 UNL -0.0442
   2    C       14.4170  131.6930   -3.4510 C.2   1 UNL -0.0804
   3    C       13.4820  130.6000   -3.0030 C.3   1 UNL -0.0442
   4    C       15.7190  131.6080   -3.1010 C.2   1 UNL -0.0856
   5    C       16.7800  132.6110   -3.4880 C.3   1 UNL -0.0311
   6    C       18.1140  131.9290   -3.8260 C.3   1 UNL -0.0288
   7    C       19.2520  132.4670   -2.9820 C.2   1 UNL -0.0770
   8    C       19.1760  132.3340   -1.4780 C.3   1 UNL -0.0439
   9    C       20.3040  133.0570   -3.5940 C.2   1 UNL -0.0853
  10    C       21.4960  133.6310   -2.8710 C.3   1 UNL -0.0311
  11    C       22.2550  134.6080   -3.7750 C.3   1 UNL -0.0287
  12    C       21.3960  135.8060   -4.1130 C.2   1 UNL -0.0747
  13    C       20.8170  136.6370   -2.9920 C.3   1 UNL -0.0438
  14    C       21.1610  136.1040   -5.4110 C.2   1 UNL -0.0595
  15    C       20.3240  137.2680   -5.8640 C.3   1 UNL  0.0736
  16    O       20.2490  137.2660   -7.2690 O.3   1 UNL -0.3141
  17    P       18.6880  136.7500   -7.7280 P.3   1 UNL  0.2716
  18    O       18.0900  135.9260   -6.6100 O.2   1 UNL -0.2760
  19    O       18.7610  135.7990   -9.1270 O.2   1 UNL -0.7559
  20    O       17.6760  138.0890   -8.0030 O.3   1 UNL -0.2868
  21    P       16.2020  137.5000   -8.6150 P.3   1 UNL  0.0693
  22    O       16.4690  136.7890   -9.9210 O.2   1 UNL -0.3255
  23    O       15.5210  136.3970   -7.5270 O.2   1 UNL -0.7895
  24    O       15.1100  138.7620   -8.8980 O.2   1 UNL -0.7895
  25    H       13.5126  133.6293   -3.6280 H     1 UNL  0.0276
  26    H       14.6912  133.2282   -4.9228 H     1 UNL  0.0276
  27    H       13.0637  132.4681   -4.9228 H     1 UNL  0.0276
  28    H       13.4549  130.5683   -1.9038 H     1 UNL  0.0276
  29    H       12.4717  130.8006   -3.3890 H     1 UNL  0.0276
  30    H       13.8367  129.6330   -3.3890 H     1 UNL  0.0276
  31    H       16.0286  130.7469   -2.4906 H     1 UNL  0.0575
  32    H       16.4344  133.1730   -4.3682 H     1 UNL  0.0313
  33    H       16.9460  133.2806   -2.6312 H     1 UNL  0.0313
  34    H       18.0170  130.8483   -3.6453 H     1 UNL  0.0316
  35    H       18.3449  132.1347   -4.8816 H     1 UNL  0.0316
  36    H       19.6695  133.1976   -1.0081 H     1 UNL  0.0276
  37    H       18.1218  132.2994   -1.1658 H     1 UNL  0.0276
  38    H       19.6814  131.4082   -1.1658 H     1 UNL  0.0276
  39    H       20.2889  133.1224   -4.6920 H     1 UNL  0.0575
  40    H       21.1518  134.1631   -1.9719 H     1 UNL  0.0313
  41    H       22.1711  132.8089   -2.5911 H     1 UNL  0.0313
  42    H       23.1620  134.9500   -3.2550 H     1 UNL  0.0316
  43    H       22.5206  134.0903   -4.7085 H     1 UNL  0.0316
  44    H       21.1164  136.2073   -2.0247 H     1 UNL  0.0276
  45    H       21.1934  137.6678   -3.0676 H     1 UNL  0.0276
  46    H       19.7196  136.6409   -3.0676 H     1 UNL  0.0276
  47    H       21.6082  135.4572   -6.1801 H     1 UNL  0.0600
  48    H       19.3122  137.1798   -5.4416 H     1 UNL  0.0617
  49    H       20.7812  138.2075   -5.5201 H     1 UNL  0.0617
@<TRIPOS>BOND
    1     2     1  1
    2     3     2  1
    3     4     2  2
    4     5     4  1
    5     6     5  1
    6     7     6  1
    7     8     7  1
    8     9     7  2
    9    10     9  1
   10    11    10  1
   11    12    11  1
   12    13    12  1
   13    14    12  2
   14    15    14  1
   15    16    15  1
   16    17    16  1
   17    18    17  2
   18    19    17  1
   19    20    17  1
   20    21    20  1
   21    22    21  2
   22    23    21  1
   23    24    21  1
   24     1    25  1
   25     1    26  1
   26     1    27  1
   27     3    28  1
   28     3    29  1
   29     3    30  1
   30     4    31  1
   31     5    32  1
   32     5    33  1
   33     6    34  1
   34     6    35  1
   35     8    36  1
   36     8    37  1
   37     8    38  1
   38     9    39  1
   39    10    40  1
   40    10    41  1
   41    11    42  1
   42    11    43  1
   43    13    44  1
   44    13    45  1
   45    13    46  1
   46    14    47  1
   47    15    48  1
   48    15    49  1