@<TRIPOS>MOLECULE
UNK
68 71 0 0 0
SMALL
GASTEIGER

@<TRIPOS>ATOM
   1    C       15.5480  138.0000   -9.3470 C.3   1 UNL -0.0640
   2    C       15.4040  136.6230   -8.6810 C.3   1 UNL -0.0375
   3    C       16.0870  136.4960   -7.3280 C.3   1 UNL  0.0741
   4    C       15.9190  135.0580   -6.8600 C.ar  1 UNL -0.0288
   5    C       14.7110  134.3990   -7.0610 C.ar  1 UNL -0.0577
   6    C       14.5800  133.0840   -6.6250 C.ar  1 UNL -0.0583
   7    C       15.6340  132.4290   -5.9960 C.ar  1 UNL -0.0193
   8    C       16.8330  133.1070   -5.8050 C.ar  1 UNL  0.1273
   9    O       17.8610  132.4780   -5.1950 O.3   1 UNL -0.4560
  10    C       18.3010  132.7510   -3.8920 C.ar  1 UNL  0.1450
  11    C       19.5330  133.3740   -3.7200 C.ar  1 UNL -0.0124
  12    C       19.9760  133.6470   -2.4310 C.ar  1 UNL -0.0186
  13    C       21.3210  134.3280   -2.2310 C.3   1 UNL  0.0807
  14    C       22.3110  134.0370   -3.3840 C.3   1 UNL -0.0370
  15    N       21.8990  133.8250   -0.9670 N.3   1 UNL -0.3167
  16    C       21.1110  135.8510   -2.1930 C.ar  1 UNL  0.0614
  17    C       21.3970  136.7220   -3.2030 C.ar  1 UNL  0.0504
  18    N       21.0600  137.9670   -2.7610 N.ar  1 UNL -0.2448
  19    C       20.5890  137.8650   -1.5370 C.ar  1 UNL  0.0946
  20    N       20.6000  136.5610   -1.1530 N.ar  1 UNL -0.3358
  21    C       20.1550  136.0210    0.1410 C.3   1 UNL  0.0125
  22    C       19.2080  133.3070   -1.3220 C.ar  1 UNL -0.0552
  23    C       17.9790  132.6840   -1.5060 C.ar  1 UNL -0.0402
  24    C       17.5250  132.4060   -2.7910 C.ar  1 UNL  0.0946
  25    C       16.1810  131.7250   -2.9920 C.1   1 UNL  0.1031
  26    N       15.1570  131.2070   -3.1460 N.1   1 UNL -0.1923
  27    C       16.9860  134.4220   -6.2330 C.ar  1 UNL -0.0150
  28    C       15.3880  137.3600   -6.2850 C.3   1 UNL -0.0345
  29    C       15.8200  138.8220   -6.2770 C.3   1 UNL -0.0503
  30    C       17.0070  139.0360   -5.3500 C.3   1 UNL -0.0354
  31    C       17.7470  137.7130   -5.2340 C.3   1 UNL  0.0201
  32    N       18.3800  137.3470   -6.5110 N.am  1 UNL -0.3450
  33    C       19.8150  137.6020   -6.7150 C.3   1 UNL  0.0092
  34    C       17.5790  136.7600   -7.5040 C.2   1 UNL  0.2325
  35    O       18.1080  136.4530   -8.5570 O.2   1 UNL -0.2739
  36    H       15.6291  138.7758   -8.5714 H     1 UNL  0.0231
  37    H       16.4523  138.0117   -9.9732 H     1 UNL  0.0231
  38    H       14.6657  138.1985   -9.9732 H     1 UNL  0.0231
  39    H       14.3318  136.4194   -8.5438 H     1 UNL  0.0278
  40    H       15.9000  135.9024   -9.3479 H     1 UNL  0.0278
  41    H       13.8721  134.9093   -7.5569 H     1 UNL  0.0626
  42    H       13.6285  132.5543   -6.7801 H     1 UNL  0.0624
  43    H       15.5205  131.3895   -5.6546 H     1 UNL  0.0662
  44    H       20.1473  133.6464   -4.5909 H     1 UNL  0.0666
  45    H       23.2870  133.7501   -2.9656 H     1 UNL  0.0257
  46    H       21.9216  133.2153   -4.0030 H     1 UNL  0.0257
  47    H       22.4282  134.9387   -4.0030 H     1 UNL  0.0257
  48    H       21.4068  134.2533   -0.1700 H     1 UNL  0.1196
  49    H       21.7944  132.8012   -0.9251 H     1 UNL  0.1196
  50    H       21.8191  136.4683   -4.1866 H     1 UNL  0.0860
  51    H       20.2399  138.7056   -0.9192 H     1 UNL  0.1043
  52    H       20.6242  136.5904    0.9568 H     1 UNL  0.0461
  53    H       19.0609  136.1056    0.2169 H     1 UNL  0.0461
  54    H       20.4471  134.9632    0.2169 H     1 UNL  0.0461
  55    H       19.5704  133.5294   -0.3075 H     1 UNL  0.0627
  56    H       17.3653  132.4108   -0.6350 H     1 UNL  0.0638
  57    H       17.9375  134.9516   -6.0778 H     1 UNL  0.0665
  58    H       14.3059  137.3234   -6.4789 H     1 UNL  0.0281
  59    H       15.6654  136.9483   -5.3034 H     1 UNL  0.0281
  60    H       16.1029  139.1188   -7.2977 H     1 UNL  0.0268
  61    H       14.9796  139.4332   -5.9162 H     1 UNL  0.0268
  62    H       17.6750  139.8036   -5.7678 H     1 UNL  0.0285
  63    H       16.6669  139.3754   -4.3605 H     1 UNL  0.0285
  64    H       18.5239  137.8024   -4.4604 H     1 UNL  0.0494
  65    H       17.0229  136.9297   -4.9656 H     1 UNL  0.0494
  66    H       20.3141  137.6907   -5.7387 H     1 UNL  0.0457
  67    H       20.2589  136.7687   -7.2794 H     1 UNL  0.0457
  68    H       19.9446  138.5372   -7.2794 H     1 UNL  0.0457
@<TRIPOS>BOND
    1     2     1  1
    2     3     2  1
    3     4     3  1
    4     5     4 ar
    5     6     5 ar
    6     7     6 ar
    7     8     7 ar
    8     9     8  1
    9    10     9  1
   10    11    10 ar
   11    12    11 ar
   12    13    12  1
   13    14    13  1
   14    15    13  1
   15    16    13  1
   16    17    16 ar
   17    18    17 ar
   18    19    18 ar
   19    20    16 ar
   20    20    19 ar
   21    21    20  1
   22    22    12 ar
   23    23    22 ar
   24    24    23 ar
   25    24    10 ar
   26    25    24  1
   27    26    25  3
   28    27     4 ar
   29    27     8 ar
   30    28     3  1
   31    29    28  1
   32    30    29  1
   33    31    30  1
   34    32    31  1
   35    33    32  1
   36    34     3  1
   37    34    32 am
   38    35    34  2
   39     1    36  1
   40     1    37  1
   41     1    38  1
   42     2    39  1
   43     2    40  1
   44     5    41  1
   45     6    42  1
   46     7    43  1
   47    11    44  1
   48    14    45  1
   49    14    46  1
   50    14    47  1
   51    15    48  1
   52    15    49  1
   53    17    50  1
   54    19    51  1
   55    21    52  1
   56    21    53  1
   57    21    54  1
   58    22    55  1
   59    23    56  1
   60    27    57  1
   61    28    58  1
   62    28    59  1
   63    29    60  1
   64    29    61  1
   65    30    62  1
   66    30    63  1
   67    31    64  1
   68    31    65  1
   69    33    66  1
   70    33    67  1
   71    33    68  1