@<TRIPOS>MOLECULE
UNK
50 53 0 0 0
SMALL
GASTEIGER

@<TRIPOS>ATOM
   1    N       18.4150  132.9620    3.3120 N.1   1 UNL -0.1924
   2    C       18.5910  132.9360    2.1690 C.1   1 UNL  0.0991
   3    C       18.8070  132.9030    0.7470 C.ar  1 UNL  0.0520
   4    C       17.8990  133.5370   -0.0960 C.ar  1 UNL -0.0441
   5    C       18.0950  133.5130   -1.4730 C.ar  1 UNL -0.0559
   6    C       19.2040  132.8500   -1.9890 C.ar  1 UNL -0.0281
   7    C       19.4290  132.8150   -3.4920 C.3   1 UNL  0.0490
   8    N       20.4970  133.7370   -3.8920 N.ar  1 UNL -0.3254
   9    C       21.8340  133.5050   -3.7540 C.ar  1 UNL  0.0953
  10    N       22.4740  134.5530   -4.2240 N.ar  1 UNL -0.2447
  11    C       21.5600  135.4660   -4.6670 C.ar  1 UNL  0.0539
  12    C       20.3100  134.9590   -4.4610 C.ar  1 UNL  0.0927
  13    C       18.9870  135.6240   -4.8040 C.3   1 UNL  0.1201
  14    N       19.1220  137.0760   -5.0960 N.4   1 UNL -0.3206
  15    C       17.8370  137.7360   -4.7700 C.3   1 UNL  0.0961
  16    C       17.1060  138.4370   -5.9100 C.3   1 UNL  0.0753
  17    N       17.2720  137.7850   -7.2210 N.am  1 UNL -0.3018
  18    C       16.2080  137.7500   -8.1310 C.ar  1 UNL  0.0456
  19    C       16.3450  138.3730   -9.3670 C.ar  1 UNL -0.0382
  20    C       15.2850  138.3340  -10.2670 C.ar  1 UNL -0.0587
  21    C       14.1000  137.6820   -9.9450 C.ar  1 UNL -0.0434
  22    C       13.9840  137.0660   -8.7030 C.ar  1 UNL  0.0426
  23   Cl       12.4750  136.2270   -8.2710 Cl    1 UNL -0.0843
  24    C       15.0310  137.0930   -7.7880 C.ar  1 UNL -0.0196
  25    C       18.5080  137.1970   -7.5250 C.2   1 UNL  0.2819
  26    O       18.6940  136.6490   -8.6020 O.2   1 UNL -0.2679
  27    C       19.6160  137.2490   -6.4730 C.3   1 UNL  0.1576
  28    C       20.1130  132.2150   -1.1500 C.ar  1 UNL -0.0559
  29    C       19.9140  132.2400    0.2270 C.ar  1 UNL -0.0441
  30    H       17.0266  134.0569    0.3265 H     1 UNL  0.0637
  31    H       17.3819  134.0121   -2.1456 H     1 UNL  0.0627
  32    H       19.7077  131.7932   -3.7890 H     1 UNL  0.0549
  33    H       18.4983  133.1245   -3.9899 H     1 UNL  0.0549
  34    H       22.2945  132.6024   -3.3260 H     1 UNL  0.1043
  35    H       21.7921  136.4439   -5.1139 H     1 UNL  0.0862
  36    H       18.5645  135.1267   -5.6895 H     1 UNL  0.0996
  37    H       18.3330  135.5257   -3.9250 H     1 UNL  0.0996
  38    H       19.8275  137.5438   -4.5092 H     1 UNL  0.3484
  39    H       17.1621  136.9662   -4.3676 H     1 UNL  0.0943
  40    H       18.1006  138.5386   -4.0655 H     1 UNL  0.0943
  41    H       16.0329  138.4611   -5.6694 H     1 UNL  0.0558
  42    H       17.5440  139.4422   -5.9975 H     1 UNL  0.0558
  43    H       17.2798  138.8900   -9.6295 H     1 UNL  0.0645
  44    H       15.3856  138.8253  -11.2460 H     1 UNL  0.0624
  45    H       13.2662  137.6536  -10.6619 H     1 UNL  0.0638
  46    H       14.9299  136.6026   -6.8086 H     1 UNL  0.0661
  47    H       20.3388  136.4481   -6.6876 H     1 UNL  0.1032
  48    H       20.0736  138.2476   -6.5315 H     1 UNL  0.1032
  49    H       20.9854  131.6953   -1.5728 H     1 UNL  0.0627
  50    H       20.6265  131.7394    0.8992 H     1 UNL  0.0637
@<TRIPOS>BOND
    1     2     1  3
    2     3     2  1
    3     4     3 ar
    4     5     4 ar
    5     6     5 ar
    6     7     6  1
    7     8     7  1
    8     9     8 ar
    9    10     9 ar
   10    11    10 ar
   11    12    11 ar
   12    12     8 ar
   13    13    12  1
   14    14    13  1
   15    15    14  1
   16    16    15  1
   17    17    16  1
   18    18    17  1
   19    19    18 ar
   20    20    19 ar
   21    21    20 ar
   22    22    21 ar
   23    23    22  1
   24    24    22 ar
   25    24    18 ar
   26    25    17 am
   27    26    25  2
   28    27    25  1
   29    27    14  1
   30    28     6 ar
   31    29    28 ar
   32    29     3 ar
   33     4    30  1
   34     5    31  1
   35     7    32  1
   36     7    33  1
   37     9    34  1
   38    11    35  1
   39    13    36  1
   40    13    37  1
   41    14    38  1
   42    15    39  1
   43    15    40  1
   44    16    41  1
   45    16    42  1
   46    19    43  1
   47    20    44  1
   48    21    45  1
   49    24    46  1
   50    27    47  1
   51    27    48  1
   52    28    49  1
   53    29    50  1