@<TRIPOS>MOLECULE
UNK
62 67 0 0 0
SMALL
GASTEIGER

@<TRIPOS>ATOM
   1    N       15.6540  137.6950   -0.9690 N.1   1 UNL -0.1979
   2    C       16.2630  138.2390   -0.1480 C.1   1 UNL  0.0698
   3    C       17.0370  138.9310    0.9030 C.3   1 UNL  0.0869
   4    C       16.5910  138.4270    2.2860 C.3   1 UNL -0.0151
   5    C       17.0270  137.0020    2.5330 C.2   1 UNL -0.0820
   6    C       18.1130  136.4570    1.9400 C.2   1 UNL -0.0507
   7    C       18.9310  137.2180    0.9140 C.3   1 UNL  0.0084
   8    C       18.5600  138.7050    0.7710 C.3   1 UNL  0.1185
   9    O       19.1280  139.2940   -0.4130 O.3   1 UNL -0.4887
  10    C       18.7790  138.9530   -1.7260 C.ar  1 UNL  0.1200
  11    C       17.8540  139.7440   -2.4120 C.ar  1 UNL -0.0193
  12    C       17.4460  139.3970   -3.6980 C.ar  1 UNL -0.0506
  13    C       17.9600  138.2480   -4.3180 C.ar  1 UNL -0.0160
  14    C       17.5180  137.8950   -5.5990 C.ar  1 UNL -0.0542
  15    C       18.0140  136.7530   -6.2220 C.ar  1 UNL -0.0596
  16    C       18.9550  135.9530   -5.5770 C.ar  1 UNL -0.0377
  17    C       19.4280  136.2820   -4.2940 C.ar  1 UNL  0.0518
  18    C       18.9280  137.4480   -3.6500 C.ar  1 UNL  0.0092
  19    C       19.3630  137.8490   -2.3680 C.ar  1 UNL -0.0100
  20    N       20.3900  135.4100   -3.6650 N.am  1 UNL -0.3064
  21    C       21.5840  134.8790   -4.3110 C.3   1 UNL  0.0323
  22    C       21.9860  133.6400   -3.4890 C.3   1 UNL  0.0269
  23    C       21.3280  133.8100   -2.1050 C.3   1 UNL  0.1675
  24    N       22.2950  134.4150   -1.1600 N.4   1 UNL -0.3356
  25    C       21.7160  134.8880    0.1080 C.3   1 UNL  0.0817
  26    C       21.1500  133.7580    0.9810 C.3   1 UNL  0.0386
  27    C       20.8710  134.2670    2.3730 C.ar  1 UNL  0.0432
  28    C       21.8060  134.3340    3.3850 C.ar  1 UNL  0.0483
  29    N       21.2570  134.9200    4.4680 N.ar  1 UNL -0.2449
  30    C       19.9940  135.2080    4.0900 C.ar  1 UNL  0.0951
  31    N       19.7300  134.8370    2.8210 N.ar  1 UNL -0.3303
  32    C       18.4390  134.9940    2.1480 C.3   1 UNL  0.0448
  33    C       20.1980  134.7210   -2.4400 C.2   1 UNL  0.2848
  34    O       19.1290  134.7870   -1.7760 O.2   1 UNL -0.2675
  35    H       16.8410  140.0071    0.7861 H     1 UNL  0.0503
  36    H       17.0321  139.0731    3.0593 H     1 UNL  0.0325
  37    H       15.4921  138.4588    2.3226 H     1 UNL  0.0325
  38    H       16.4366  136.3821    3.2238 H     1 UNL  0.0577
  39    H       19.9899  137.1554    1.2051 H     1 UNL  0.0352
  40    H       18.7217  136.7503   -0.0594 H     1 UNL  0.0352
  41    H       19.0180  139.2424    1.6144 H     1 UNL  0.0760
  42    H       17.4453  140.6464   -1.9337 H     1 UNL  0.0662
  43    H       16.7175  140.0267   -4.2298 H     1 UNL  0.0631
  44    H       16.7762  138.5223   -6.1149 H     1 UNL  0.0629
  45    H       17.6615  136.4811   -7.2279 H     1 UNL  0.0624
  46    H       19.3337  135.0504   -6.0789 H     1 UNL  0.0645
  47    H       20.1676  137.2909   -1.8669 H     1 UNL  0.0669
  48    H       21.3635  134.5947   -5.3505 H     1 UNL  0.0501
  49    H       22.3928  135.6238   -4.3449 H     1 UNL  0.0501
  50    H       21.6194  132.7242   -3.9756 H     1 UNL  0.0352
  51    H       23.0793  133.5521   -3.4050 H     1 UNL  0.0352
  52    H       21.0009  132.8830   -1.6113 H     1 UNL  0.1070
  53    H       23.0110  133.7080   -0.9398 H     1 UNL  0.3465
  54    H       22.6735  135.2489   -1.6314 H     1 UNL  0.3465
  55    H       22.5009  135.4079    0.6769 H     1 UNL  0.0927
  56    H       20.8769  135.5521   -0.1467 H     1 UNL  0.0927
  57    H       20.2151  133.3876    0.5351 H     1 UNL  0.0391
  58    H       21.8871  132.9434    1.0371 H     1 UNL  0.0391
  59    H       22.8405  133.9659    3.3186 H     1 UNL  0.0860
  60    H       19.2580  135.6939    4.7474 H     1 UNL  0.1043
  61    H       18.4790  134.4914    1.1704 H     1 UNL  0.0545
  62    H       17.6571  134.5458    2.7786 H     1 UNL  0.0545
@<TRIPOS>BOND
    1     2     1  3
    2     3     2  1
    3     4     3  1
    4     5     4  1
    5     6     5  2
    6     7     6  1
    7     8     7  1
    8     8     3  1
    9     9     8  1
   10    10     9  1
   11    11    10 ar
   12    12    11 ar
   13    13    12 ar
   14    14    13 ar
   15    15    14 ar
   16    16    15 ar
   17    17    16 ar
   18    18    17 ar
   19    18    13 ar
   20    19    18 ar
   21    19    10 ar
   22    20    17  1
   23    21    20  1
   24    22    21  1
   25    23    22  1
   26    24    23  1
   27    25    24  1
   28    26    25  1
   29    27    26  1
   30    28    27 ar
   31    29    28 ar
   32    30    29 ar
   33    31    30 ar
   34    31    27 ar
   35    32    31  1
   36    32     6  1
   37    33    23  1
   38    33    20 am
   39    34    33  2
   40     3    35  1
   41     4    36  1
   42     4    37  1
   43     5    38  1
   44     7    39  1
   45     7    40  1
   46     8    41  1
   47    11    42  1
   48    12    43  1
   49    14    44  1
   50    15    45  1
   51    16    46  1
   52    19    47  1
   53    21    48  1
   54    21    49  1
   55    22    50  1
   56    22    51  1
   57    23    52  1
   58    24    53  1
   59    24    54  1
   60    25    55  1
   61    25    56  1
   62    26    57  1
   63    26    58  1
   64    28    59  1
   65    30    60  1
   66    32    61  1
   67    32    62  1