@<TRIPOS>MOLECULE
UNK
52 51 0 0 0
SMALL
GASTEIGER

@<TRIPOS>ATOM
   1    C       17.8420  135.3940    4.0950 C.3   1 UNL -0.0442
   2    C       17.3510  135.5190    2.6720 C.2   1 UNL -0.0804
   3    C       16.6470  136.7780    2.2370 C.3   1 UNL -0.0442
   4    C       17.5080  134.5250    1.7700 C.2   1 UNL -0.0856
   5    C       18.1740  133.2010    2.0600 C.3   1 UNL -0.0311
   6    C       19.0010  132.7080    0.8640 C.3   1 UNL -0.0288
   7    C       18.2770  131.6370    0.0740 C.2   1 UNL -0.0770
   8    C       18.6060  130.1850    0.3300 C.3   1 UNL -0.0439
   9    C       17.3620  132.0100   -0.8490 C.2   1 UNL -0.0853
  10    C       16.5640  131.0570   -1.7090 C.3   1 UNL -0.0311
  11    C       15.6330  131.7940   -2.6860 C.3   1 UNL -0.0287
  12    C       16.3740  132.3160   -3.9020 C.2   1 UNL -0.0746
  13    C       16.6210  133.8020   -4.0330 C.3   1 UNL -0.0438
  14    C       16.8110  131.4410   -4.8340 C.2   1 UNL -0.0574
  15    C       17.5560  131.8370   -6.0790 C.3   1 UNL  0.0931
  16    O       18.8910  131.3910   -5.9830 O.3   1 UNL -0.2695
  17    N       19.6910  132.4890   -6.0140 N.am  1 UNL -0.2343
  18    C       20.4540  132.8750   -4.8650 C.2   1 UNL  0.2481
  19    O       21.1880  133.8980   -4.9230 O.2   1 UNL -0.2724
  20    C       20.3600  132.1060   -3.5800 C.3   1 UNL  0.0566
  21    P       21.4880  132.8080   -2.3390 P.3   1 UNL -0.0578
  22    O       22.8800  132.9130   -2.9180 O.2   1 UNL -0.3562
  23    O       20.9560  134.3450   -1.8750 O.2   1 UNL -0.8104
  24    O       21.5210  131.7960   -0.9840 O.2   1 UNL -0.8104
  25    H       17.0144  135.6047    4.7883 H     1 UNL  0.0276
  26    H       18.2130  134.3728    4.2665 H     1 UNL  0.0276
  27    H       18.6562  136.1135    4.2665 H     1 UNL  0.0276
  28    H       16.3295  137.3457    3.1241 H     1 UNL  0.0276
  29    H       17.3326  137.3921    1.6347 H     1 UNL  0.0276
  30    H       15.7648  136.5154    1.6347 H     1 UNL  0.0276
  31    H       17.1236  134.6921    0.7530 H     1 UNL  0.0575
  32    H       18.8385  133.3188    2.9287 H     1 UNL  0.0313
  33    H       17.3880  132.4587    2.2630 H     1 UNL  0.0313
  34    H       19.2074  133.5603    0.1999 H     1 UNL  0.0316
  35    H       19.9324  132.2709    1.2530 H     1 UNL  0.0316
  36    H       18.6470  130.0040    1.4142 H     1 UNL  0.0276
  37    H       17.8293  129.5484   -0.1189 H     1 UNL  0.0276
  38    H       19.5812  129.9453   -0.1189 H     1 UNL  0.0276
  39    H       17.1852  133.0873   -0.9841 H     1 UNL  0.0575
  40    H       17.2616  130.4334   -2.2872 H     1 UNL  0.0313
  41    H       15.9374  130.4460   -1.0426 H     1 UNL  0.0313
  42    H       14.8491  131.0987   -3.0207 H     1 UNL  0.0316
  43    H       15.2038  132.6573   -2.1564 H     1 UNL  0.0316
  44    H       16.6956  134.2510   -3.0316 H     1 UNL  0.0276
  45    H       17.5595  133.9708   -4.5814 H     1 UNL  0.0276
  46    H       15.7875  134.2653   -4.5814 H     1 UNL  0.0276
  47    H       16.6093  130.3719   -4.6721 H     1 UNL  0.0601
  48    H       17.0769  131.3776   -6.9561 H     1 UNL  0.0640
  49    H       17.5391  132.9315   -6.1871 H     1 UNL  0.0640
  50    H       19.7494  133.0511   -6.8751 H     1 UNL  0.1985
  51    H       19.3282  132.1563   -3.2019 H     1 UNL  0.0425
  52    H       20.6424  131.0597   -3.7683 H     1 UNL  0.0425
@<TRIPOS>BOND
    1     2     1  1
    2     3     2  1
    3     4     2  2
    4     5     4  1
    5     6     5  1
    6     7     6  1
    7     8     7  1
    8     9     7  2
    9    10     9  1
   10    11    10  1
   11    12    11  1
   12    13    12  1
   13    14    12  2
   14    15    14  1
   15    16    15  1
   16    17    16  1
   17    18    17 am
   18    19    18  2
   19    20    18  1
   20    21    20  1
   21    22    21  2
   22    23    21  1
   23    24    21  1
   24     1    25  1
   25     1    26  1
   26     1    27  1
   27     3    28  1
   28     3    29  1
   29     3    30  1
   30     4    31  1
   31     5    32  1
   32     5    33  1
   33     6    34  1
   34     6    35  1
   35     8    36  1
   36     8    37  1
   37     8    38  1
   38     9    39  1
   39    10    40  1
   40    10    41  1
   41    11    42  1
   42    11    43  1
   43    13    44  1
   44    13    45  1
   45    13    46  1
   46    14    47  1
   47    15    48  1
   48    15    49  1
   49    17    50  1
   50    20    51  1
   51    20    52  1