@<TRIPOS>MOLECULE
UNK
85 88 0 0 0
SMALL
GASTEIGER

@<TRIPOS>ATOM
   1    C       15.6790  -69.5340    5.0420 C.3   1 UNL -0.0384
   2    C       15.9320  -69.3910    3.5500 C.ar  1 UNL -0.0310
   3    C       15.1590  -70.1470    2.6740 C.ar  1 UNL -0.0580
   4    C       15.3720  -70.0330    1.3040 C.ar  1 UNL -0.0619
   5    C       16.3500  -69.1700    0.8220 C.ar  1 UNL -0.0609
   6    C       17.1240  -68.4130    1.6960 C.ar  1 UNL -0.0418
   7    C       16.9110  -68.5270    3.0660 C.ar  1 UNL  0.0851
   8    S       17.9070  -67.5550    4.1660 S.3   1 UNL  0.2429
   9    O       18.4140  -66.3560    3.4140 O.2   1 UNL -0.2069
  10    O       17.0660  -67.0610    5.3120 O.2   1 UNL -0.2069
  11    N       19.2700  -68.4620    4.7870 N.3   1 UNL -0.1958
  12    C       20.3420  -68.6420    3.7770 C.3   1 UNL  0.0315
  13    C       20.1660  -69.8710    2.8630 C.3   1 UNL  0.0321
  14    N       21.0010  -70.9980    3.3140 N.2   1 UNL -0.3643
  15    C       22.4710  -70.9300    3.2540 C.3   1 UNL  0.0598
  16    C       23.0010  -71.5210    1.9760 C.ar  1 UNL  0.0565
  17    C       23.4070  -72.8110    1.8010 C.ar  1 UNL  0.0499
  18    N       23.8080  -72.9290    0.5030 N.ar  1 UNL -0.2449
  19    C       23.6560  -71.7650   -0.0910 C.ar  1 UNL  0.0946
  20    N       23.1490  -70.8650    0.7940 N.ar  1 UNL -0.3361
  21    C       22.8310  -69.4540    0.5300 C.3   1 UNL  0.0125
  22    C       20.3740  -72.2240    3.7310 C.ar  1 UNL  0.0371
  23    C       21.1020  -73.1420    4.4820 C.ar  1 UNL -0.0374
  24    C       20.5090  -74.3320    4.8900 C.ar  1 UNL -0.0423
  25    C       19.1870  -74.5870    4.5390 C.ar  1 UNL  0.0521
  26    C       18.5270  -75.8820    4.9810 C.1   1 UNL  0.0991
  27    N       18.0240  -76.8690    5.3170 N.1   1 UNL -0.1924
  28    C       18.4560  -73.6720    3.7890 C.ar  1 UNL -0.0423
  29    C       19.0530  -72.4830    3.3820 C.ar  1 UNL -0.0374
  30    C       18.7940  -69.7030    5.4370 C.3   1 UNL  0.0168
  31    C       19.6090  -70.0880    6.6620 C.3   1 UNL -0.0241
  32    C       19.1910  -69.1780    7.8070 C.3   1 UNL -0.0311
  33    C       20.3560  -69.0270    8.7670 C.3   1 UNL  0.0241
  34    N       21.0520  -70.3230    8.7590 N.am  1 UNL -0.3082
  35    C       20.9740  -71.2560    9.8560 C.2   1 UNL  0.4098
  36    O       20.3950  -70.9250   10.9260 O.2   1 UNL -0.2243
  37    O       21.5480  -72.5320    9.7250 O.3   1 UNL -0.4437
  38    C       21.4330  -73.6200   10.6540 C.3   1 UNL  0.1057
  39    C       19.9690  -74.0870   10.7640 C.3   1 UNL -0.0253
  40    C       21.9800  -73.2130   12.0360 C.3   1 UNL -0.0253
  41    C       22.2830  -74.7760   10.1050 C.3   1 UNL -0.0253
  42    C       21.8290  -70.6060    7.5500 C.3   1 UNL  0.0241
  43    C       21.1000  -69.9800    6.3740 C.3   1 UNL -0.0311
  44    H       16.5042  -69.0676    5.6002 H     1 UNL  0.0280
  45    H       14.7329  -69.0371    5.3028 H     1 UNL  0.0280
  46    H       15.6168  -70.6008    5.3028 H     1 UNL  0.0280
  47    H       14.3869  -70.8282    3.0611 H     1 UNL  0.0626
  48    H       14.7668  -70.6255    0.6021 H     1 UNL  0.0623
  49    H       16.5136  -69.0848   -0.2624 H     1 UNL  0.0623
  50    H       17.8958  -67.7320    1.3080 H     1 UNL  0.0637
  51    H       20.3691  -67.7440    3.1423 H     1 UNL  0.0461
  52    H       21.2740  -68.8033    4.3385 H     1 UNL  0.0461
  53    H       19.1102  -70.1794    2.8767 H     1 UNL  0.0507
  54    H       20.4775  -69.5939    1.8451 H     1 UNL  0.0507
  55    H       22.7825  -69.8769    3.3164 H     1 UNL  0.0560
  56    H       22.8769  -71.5103    4.0957 H     1 UNL  0.0560
  57    H       23.4104  -73.6052    2.5620 H     1 UNL  0.0860
  58    H       23.9013  -71.5522   -1.1420 H     1 UNL  0.1043
  59    H       22.7108  -68.9205    1.4844 H     1 UNL  0.0461
  60    H       23.6483  -68.9955   -0.0460 H     1 UNL  0.0461
  61    H       21.8960  -69.3904   -0.0460 H     1 UNL  0.0461
  62    H       22.1461  -72.9265    4.7528 H     1 UNL  0.0645
  63    H       21.0783  -75.0628    5.4831 H     1 UNL  0.0637
  64    H       17.4116  -73.8871    3.5190 H     1 UNL  0.0637
  65    H       18.4839  -71.7527    2.7881 H     1 UNL  0.0645
  66    H       17.7479  -69.5575    5.7446 H     1 UNL  0.0445
  67    H       18.8999  -70.5170    4.7048 H     1 UNL  0.0445
  68    H       19.4174  -71.1357    6.9368 H     1 UNL  0.0318
  69    H       18.9095  -68.1914    7.4103 H     1 UNL  0.0288
  70    H       18.3292  -69.6142    8.3334 H     1 UNL  0.0288
  71    H       21.0310  -68.2275    8.4276 H     1 UNL  0.0495
  72    H       20.0157  -68.7562    9.7774 H     1 UNL  0.0495
  73    H       19.6911  -74.1756   11.8246 H     1 UNL  0.0271
  74    H       19.3123  -73.3537   10.2730 H     1 UNL  0.0271
  75    H       19.8582  -75.0651   10.2730 H     1 UNL  0.0271
  76    H       21.3640  -73.6714   12.8237 H     1 UNL  0.0271
  77    H       23.0194  -73.5591   12.1354 H     1 UNL  0.0271
  78    H       21.9471  -72.1180   12.1354 H     1 UNL  0.0271
  79    H       22.7054  -75.3505   10.9426 H     1 UNL  0.0271
  80    H       21.6525  -75.4347    9.4897 H     1 UNL  0.0271
  81    H       23.0997  -74.3706    9.4897 H     1 UNL  0.0271
  82    H       22.8352  -70.1711    7.6413 H     1 UNL  0.0495
  83    H       21.9328  -71.6914    7.4047 H     1 UNL  0.0495
  84    H       21.3453  -70.5198    5.4475 H     1 UNL  0.0288
  85    H       21.3982  -68.9293    6.2432 H     1 UNL  0.0288
@<TRIPOS>BOND
    1     2     1  1
    2     3     2 ar
    3     4     3 ar
    4     5     4 ar
    5     6     5 ar
    6     7     2 ar
    7     7     6 ar
    8     8     7  1
    9     9     8  2
   10    10     8  2
   11    11     8  1
   12    12    11  1
   13    13    12  1
   14    14    13  1
   15    15    14  1
   16    16    15  1
   17    17    16 ar
   18    18    17 ar
   19    19    18 ar
   20    20    19 ar
   21    20    16 ar
   22    21    20  1
   23    22    14  1
   24    23    22 ar
   25    24    23 ar
   26    25    24 ar
   27    26    25  1
   28    27    26  3
   29    28    25 ar
   30    29    28 ar
   31    29    22 ar
   32    30    11  1
   33    31    30  1
   34    32    31  1
   35    33    32  1
   36    34    33  1
   37    35    34 am
   38    36    35  2
   39    37    35  1
   40    38    37  1
   41    39    38  1
   42    40    38  1
   43    41    38  1
   44    42    34  1
   45    43    31  1
   46    43    42  1
   47     1    44  1
   48     1    45  1
   49     1    46  1
   50     3    47  1
   51     4    48  1
   52     5    49  1
   53     6    50  1
   54    12    51  1
   55    12    52  1
   56    13    53  1
   57    13    54  1
   58    15    55  1
   59    15    56  1
   60    17    57  1
   61    19    58  1
   62    21    59  1
   63    21    60  1
   64    21    61  1
   65    23    62  1
   66    24    63  1
   67    28    64  1
   68    29    65  1
   69    30    66  1
   70    30    67  1
   71    31    68  1
   72    32    69  1
   73    32    70  1
   74    33    71  1
   75    33    72  1
   76    39    73  1
   77    39    74  1
   78    39    75  1
   79    40    76  1
   80    40    77  1
   81    40    78  1
   82    41    79  1
   83    41    80  1
   84    41    81  1
   85    42    82  1
   86    42    83  1
   87    43    84  1
   88    43    85  1