1JCQ_739_3
     RDKit          3D

 34 34  0  0  0  0  0  0  0  0999 V2000
   21.6163  137.2636    1.7308 C   0  0  0  0  0  0  0  0  0  0  0  0
   20.9986  136.6870    3.0058 C   0  0  0  0  0  0  0  0  0  0  0  0
   19.9868  135.5446    2.7255 C   0  0  0  0  0  0  0  0  0  0  0  0
   18.7277  136.0862    2.0205 C   0  0  0  0  0  0  0  0  0  0  0  0
   19.5982  134.7136    4.0041 C   0  0  0  0  0  0  0  0  0  0  0  0
   20.7791  134.5199    4.9879 C   0  0  0  0  0  0  0  0  0  0  0  0
   21.9254  134.0523    4.3014 O   0  0  0  0  0  0  0  0  0  0  0  0
   22.5432  132.9930    5.0134 C   0  0  0  0  0  0  0  0  0  0  0  0
   23.7229  133.5433    5.8374 C   0  0  0  0  0  0  0  0  0  0  0  0
   24.5660  134.5345    5.0706 C   0  0  0  0  0  0  0  0  0  0  0  0
   24.2470  135.8872    5.1210 C   0  0  0  0  0  0  0  0  0  0  0  0
   25.0272  136.7945    4.4121 C   0  0  0  0  0  0  0  0  0  0  0  0
   26.1125  136.3552    3.6625 C   0  0  0  0  0  0  0  0  0  0  0  0
   26.4240  134.9999    3.6176 C   0  0  0  0  0  0  0  0  0  0  0  0
   25.6498  134.0849    4.3232 C   0  0  0  0  0  0  0  0  0  0  0  0
   23.0104  131.9162    4.0638 C   0  0  0  0  0  0  0  0  0  0  0  0
   23.1071  130.7294    4.4785 O   0  0  0  0  0  0  0  0  0  0  0  0
   23.3731  132.2437    2.7129 N   0  0  0  0  0  0  0  0  0  0  0  0
   23.8638  131.2445    1.7626 C   0  0  0  0  0  0  0  0  0  0  0  0
   24.2628  131.9420    0.4507 C   0  0  0  0  0  0  0  0  0  0  0  0
   25.5506  132.7604    0.5934 C   0  0  0  0  0  0  0  0  0  0  0  0
   26.2522  133.1173   -1.0089 S   0  0  0  0  0  0  0  0  0  0  0  0
   25.2088  132.4279   -2.2732 C   0  0  0  0  0  0  0  0  0  0  0  0
   26.3498  134.6045   -1.2026 O   0  0  0  0  0  0  0  0  0  0  0  0
   27.6229  132.5092   -1.1111 O   0  0  0  0  0  0  0  0  0  0  0  0
   25.0197  130.4988    2.3730 C   0  0  0  0  0  0  0  0  0  0  0  0
   25.2428  129.2982    2.0632 O   0  0  0  0  0  0  0  0  0  0  0  0
   25.8597  131.1400    3.2744 O   0  0  0  0  0  0  0  0  0  0  0  0
   18.9790  133.4047    3.6659 N   0  0  0  0  0  0  0  0  0  0  0  0
   19.7952  132.6278    2.7092 C   0  0  0  0  0  0  0  0  0  0  0  0
   18.9889  132.1311    1.4803 C   0  0  0  0  0  0  0  0  0  0  0  0
   19.2477  130.7110    1.2039 N   0  0  0  0  0  0  0  0  0  0  0  0
   19.2466  133.0011    0.2309 C   0  0  0  0  0  0  0  0  0  0  0  0
   20.9939  133.2101   -0.0585 S   0  0  0  0  0  0  0  0  0  0  0  0
  1  2  1  0
  2  3  1  0
  3  4  1  0
  3  5  1  0
  5  6  1  0
  6  7  1  0
  7  8  1  0
  8  9  1  0
  9 10  1  0
 10 11  2  0
 11 12  1  0
 12 13  2  0
 13 14  1  0
 14 15  2  0
  8 16  1  0
 16 17  2  0
 16 18  1  0
 18 19  1  0
 19 20  1  0
 20 21  1  0
 21 22  1  0
 22 23  1  0
 22 24  2  0
 22 25  2  0
 19 26  1  0
 26 27  2  0
 26 28  1  0
  5 29  1  0
 29 30  1  0
 30 31  1  0
 31 32  1  0
 31 33  1  0
 33 34  1  0
 15 10  1  0
M  CHG  2  28  -1  32   1
M  END
>  <BIOSOLVEIT.HYDE_ESTIMATED_AFFINITY_LOWER_BOUNDARY [nM]>  (1) 
1925.542957

>  <BIOSOLVEIT.HYDE_ESTIMATED_AFFINITY_UPPER_BOUNDARY [nM]>  (1) 
191314.077447

>  <BIOSOLVEIT.HYDE_LIGAND_EFFICIENCY range: ++, +, 0, -, -->  (1) 
--

>  <BIOSOLVEIT.HYDE_LIGAND_LIPOPHILIC_EFFICIENCY range: ++, +, 0, -, -->  (1) 
0

>  <BIOSOLVEIT.INTER_CLASH range: red, yellow, green>  (1) 
green

>  <BIOSOLVEIT.INTRA_CLASH range: red, yellow, green>  (1) 
yellow

>  <BIOSOLVEIT.LOGP>  (1) 
-0.1409

>  <BIOSOLVEIT.MOLECULAR WEIGHT>  (1) 
517.706

>  <BIOSOLVEIT.MOLECULE_CHECKSUM>  (1) 
LTI2LjkyMzg7MC43OTE4Nzc=

>  <BIOSOLVEIT.TORSION_QUALITY range: red, yellow, green, not rotatable>  (1) 
red

>  <BIOSOLVEIT.TPSA>  (1) 
152.27

$$$$
2IEJ_FII_3
     RDKit          3D

 24 23  0  0  0  0  0  0  0  0999 V2000
   12.8047  128.0500   -6.4205 C   0  0  0  0  0  0  0  0  0  0  0  0
   13.9275  129.0389   -6.6281 C   0  0  0  0  0  0  0  0  0  0  0  0
   14.1217  129.6762   -7.9796 C   0  0  0  0  0  0  0  0  0  0  0  0
   14.7698  129.3708   -5.6270 C   0  0  0  0  0  0  0  0  0  0  0  0
   14.6649  128.7925   -4.2364 C   0  0  0  0  0  0  0  0  0  0  0  0
   15.5013  127.5148   -4.1010 C   0  0  0  0  0  0  0  0  0  0  0  0
   16.8526  127.8166   -3.4899 C   0  0  0  0  0  0  0  0  0  0  0  0
   16.9156  128.4472   -2.1180 C   0  0  0  0  0  0  0  0  0  0  0  0
   17.9710  127.5246   -4.1931 C   0  0  0  0  0  0  0  0  0  0  0  0
   19.3754  127.7732   -3.7031 C   0  0  0  0  0  0  0  0  0  0  0  0
   19.9879  128.9916   -4.4031 C   0  0  0  0  0  0  0  0  0  0  0  0
   20.7703  129.8384   -3.4237 C   0  0  0  0  0  0  0  0  0  0  0  0
   22.1311  130.3624   -3.8175 C   0  0  0  0  0  0  0  0  0  0  0  0
   20.2390  130.1019   -2.2094 C   0  0  0  0  0  0  0  0  0  0  0  0
   20.9361  130.9321   -1.1667 C   0  0  0  0  0  0  0  0  0  0  0  0
   22.1956  130.3695   -0.8884 O   0  0  0  0  0  0  0  0  0  0  0  0
   22.4476  130.6150    0.4248 N   0  0  0  0  0  0  0  0  0  0  0  0
   23.4447  131.5651    0.8139 C   0  0  0  0  0  0  0  0  0  0  0  0
   24.1008  132.1851   -0.0658 O   0  0  0  0  0  0  0  0  0  0  0  0
   23.7515  131.7862    2.2608 C   0  0  0  0  0  0  0  0  0  0  0  0
   24.8467  130.4701    2.8706 P   0  0  0  0  0  0  0  0  0  0  0  0
   24.0538  129.4902    3.7052 O   0  0  0  0  0  0  0  0  0  0  0  0
   25.5428  129.6586    1.5606 O   0  0  0  0  0  0  0  0  0  0  0  0
   26.0680  131.1538    3.8192 O   0  0  0  0  0  0  0  0  0  0  0  0
  1  2  1  0
  2  3  1  0
  2  4  2  3
  4  5  1  0
  5  6  1  0
  6  7  1  0
  7  8  1  0
  7  9  2  0
  9 10  1  0
 10 11  1  0
 11 12  1  0
 12 13  1  0
 12 14  2  0
 14 15  1  0
 15 16  1  0
 16 17  1  0
 17 18  1  0
 18 19  2  0
 18 20  1  0
 20 21  1  0
 21 22  2  0
 21 23  1  0
 21 24  1  0
M  CHG  2  23  -1  24  -1
M  END
>  <BIOSOLVEIT.HYDE_ESTIMATED_AFFINITY_LOWER_BOUNDARY [nM]>  (2) 
23.632200

>  <BIOSOLVEIT.HYDE_ESTIMATED_AFFINITY_UPPER_BOUNDARY [nM]>  (2) 
2347.998814

>  <BIOSOLVEIT.HYDE_LIGAND_EFFICIENCY range: ++, +, 0, -, -->  (2) 
0

>  <BIOSOLVEIT.HYDE_LIGAND_LIPOPHILIC_EFFICIENCY range: ++, +, 0, -, -->  (2) 
0

>  <BIOSOLVEIT.INTER_CLASH range: red, yellow, green>  (2) 
green

>  <BIOSOLVEIT.INTRA_CLASH range: red, yellow, green>  (2) 
green

>  <BIOSOLVEIT.LOGP>  (2) 
2.3671

>  <BIOSOLVEIT.MOLECULAR WEIGHT>  (2) 
357.384

>  <BIOSOLVEIT.MOLECULE_CHECKSUM>  (2) 
LTM3LjgzMjE7MS41NzYzNA==

>  <BIOSOLVEIT.TORSION_QUALITY range: red, yellow, green, not rotatable>  (2) 
red

>  <BIOSOLVEIT.TPSA>  (2) 
101.52

$$$$
1LD8_FPP_3
     RDKit          3D

 24 23  0  0  0  0  0  0  0  0999 V2000
   16.1081  131.5010   -2.1328 C   0  0  0  0  0  0  0  0  0  0  0  0
   15.9965  130.0979   -2.6707 C   0  0  0  0  0  0  0  0  0  0  0  0
   15.0481  129.8106   -3.8111 C   0  0  0  0  0  0  0  0  0  0  0  0
   16.7448  129.1278   -2.1001 C   0  0  0  0  0  0  0  0  0  0  0  0
   17.6951  129.3499   -0.9501 C   0  0  0  0  0  0  0  0  0  0  0  0
   18.8653  128.3623   -1.0138 C   0  0  0  0  0  0  0  0  0  0  0  0
   19.6665  128.5582   -2.2821 C   0  0  0  0  0  0  0  0  0  0  0  0
   19.1635  127.9483   -3.5693 C   0  0  0  0  0  0  0  0  0  0  0  0
   20.8215  129.2597   -2.2260 C   0  0  0  0  0  0  0  0  0  0  0  0
   21.7193  129.5320   -3.4099 C   0  0  0  0  0  0  0  0  0  0  0  0
   22.2994  130.9529   -3.3696 C   0  0  0  0  0  0  0  0  0  0  0  0
   23.2604  131.1384   -2.2129 C   0  0  0  0  0  0  0  0  0  0  0  0
   24.7472  131.0589   -2.4715 C   0  0  0  0  0  0  0  0  0  0  0  0
   22.7678  131.3819   -0.9775 C   0  0  0  0  0  0  0  0  0  0  0  0
   23.6260  131.5819    0.2409 C   0  0  0  0  0  0  0  0  0  0  0  0
   23.4803  130.4750    1.0975 O   0  0  0  0  0  0  0  0  0  0  0  0
   24.7464  130.5057    2.2419 P   0  0  0  0  0  0  0  0  0  0  0  0
   25.2541  129.0979    2.4577 O   0  0  0  0  0  0  0  0  0  0  0  0
   26.0257  131.4680    1.6907 O   0  0  0  0  0  0  0  0  0  0  0  0
   24.1862  131.1056    3.7323 O   0  0  0  0  0  0  0  0  0  0  0  0
   24.9323  132.6130    3.9938 P   0  0  0  0  0  0  0  0  0  0  0  0
   26.4271  132.4341    4.1353 O   0  0  0  0  0  0  0  0  0  0  0  0
   24.6281  133.6032    2.6576 O   0  0  0  0  0  0  0  0  0  0  0  0
   24.3183  133.3700    5.3779 O   0  0  0  0  0  0  0  0  0  0  0  0
  1  2  1  0
  2  3  1  0
  2  4  2  3
  4  5  1  0
  5  6  1  0
  6  7  1  0
  7  8  1  0
  7  9  2  0
  9 10  1  0
 10 11  1  0
 11 12  1  0
 12 13  1  0
 12 14  2  0
 14 15  1  0
 15 16  1  0
 16 17  1  0
 17 18  2  0
 17 19  1  0
 17 20  1  0
 20 21  1  0
 21 22  2  0
 21 23  1  0
 21 24  1  0
M  CHG  3  19  -1  23  -1  24  -1
M  END
>  <BIOSOLVEIT.HYDE_ESTIMATED_AFFINITY_LOWER_BOUNDARY [nM]>  (3) 
3496.589905

>  <BIOSOLVEIT.HYDE_ESTIMATED_AFFINITY_UPPER_BOUNDARY [nM]>  (3) 
347406.880550

>  <BIOSOLVEIT.HYDE_LIGAND_EFFICIENCY range: ++, +, 0, -, -->  (3) 
-

>  <BIOSOLVEIT.HYDE_LIGAND_LIPOPHILIC_EFFICIENCY range: ++, +, 0, -, -->  (3) 
--

>  <BIOSOLVEIT.INTER_CLASH range: red, yellow, green>  (3) 
green

>  <BIOSOLVEIT.INTRA_CLASH range: red, yellow, green>  (3) 
yellow

>  <BIOSOLVEIT.LOGP>  (3) 
2.7359

>  <BIOSOLVEIT.MOLECULAR WEIGHT>  (3) 
379.304

>  <BIOSOLVEIT.MOLECULE_CHECKSUM>  (3) 
LTI1LjQ0NDk7MS4wNjAyMQ==

>  <BIOSOLVEIT.TORSION_QUALITY range: red, yellow, green, not rotatable>  (3) 
green

>  <BIOSOLVEIT.TPSA>  (3) 
121.78

$$$$
