1JCQ_739_1
     RDKit          3D

 34 34  0  0  0  0  0  0  0  0999 V2000
   21.4344  136.2529   -4.8588 C   0  0  0  0  0  0  0  0  0  0  0  0
   21.5861  134.8559   -4.2529 C   0  0  0  0  0  0  0  0  0  0  0  0
   21.8814  134.8937   -2.7300 C   0  0  0  0  0  0  0  0  0  0  0  0
   23.3740  135.1502   -2.4473 C   0  0  0  0  0  0  0  0  0  0  0  0
   21.2989  133.6418   -1.9678 C   0  0  0  0  0  0  0  0  0  0  0  0
   19.7571  133.7323   -1.8833 C   0  0  0  0  0  0  0  0  0  0  0  0
   19.1778  132.5707   -2.4453 O   0  0  0  0  0  0  0  0  0  0  0  0
   17.8474  132.8240   -2.8644 C   0  0  0  0  0  0  0  0  0  0  0  0
   16.9125  131.7991   -2.2090 C   0  0  0  0  0  0  0  0  0  0  0  0
   15.4935  131.9906   -2.6784 C   0  0  0  0  0  0  0  0  0  0  0  0
   14.7293  130.8793   -3.0173 C   0  0  0  0  0  0  0  0  0  0  0  0
   13.4204  131.0631   -3.4502 C   0  0  0  0  0  0  0  0  0  0  0  0
   12.8821  132.3416   -3.5427 C   0  0  0  0  0  0  0  0  0  0  0  0
   13.6543  133.4477   -3.2018 C   0  0  0  0  0  0  0  0  0  0  0  0
   14.9643  133.2741   -2.7679 C   0  0  0  0  0  0  0  0  0  0  0  0
   17.7590  132.6969   -4.3623 C   0  0  0  0  0  0  0  0  0  0  0  0
   18.3443  131.7394   -4.9385 O   0  0  0  0  0  0  0  0  0  0  0  0
   16.9862  133.6388   -5.1222 N   0  0  0  0  0  0  0  0  0  0  0  0
   16.8315  133.5511   -6.5782 C   0  0  0  0  0  0  0  0  0  0  0  0
   16.9606  134.9445   -7.2186 C   0  0  0  0  0  0  0  0  0  0  0  0
   18.1892  135.6983   -6.6961 C   0  0  0  0  0  0  0  0  0  0  0  0
   18.8215  136.8375   -7.9183 S   0  0  0  0  0  0  0  0  0  0  0  0
   17.7625  138.2622   -8.0513 C   0  0  0  0  0  0  0  0  0  0  0  0
   20.2067  137.2778   -7.5357 O   0  0  0  0  0  0  0  0  0  0  0  0
   18.8758  136.1445   -9.2505 O   0  0  0  0  0  0  0  0  0  0  0  0
   15.4955  132.9476   -6.9057 C   0  0  0  0  0  0  0  0  0  0  0  0
   14.4449  133.3903   -6.3694 O   0  0  0  0  0  0  0  0  0  0  0  0
   15.4111  131.8996   -7.8138 O   0  0  0  0  0  0  0  0  0  0  0  0
   21.8568  133.4304   -0.6059 N   0  0  0  0  0  0  0  0  0  0  0  0
   21.1184  132.4271    0.1871 C   0  0  0  0  0  0  0  0  0  0  0  0
   20.9273  132.8706    1.6630 C   0  0  0  0  0  0  0  0  0  0  0  0
   22.1814  132.7292    2.4175 N   0  0  0  0  0  0  0  0  0  0  0  0
   19.8125  132.0476    2.3432 C   0  0  0  0  0  0  0  0  0  0  0  0
   18.6093  133.0984    3.1394 S   0  0  0  0  0  0  0  0  0  0  0  0
  1  2  1  0
  2  3  1  0
  3  4  1  0
  3  5  1  0
  5  6  1  0
  6  7  1  0
  7  8  1  0
  8  9  1  0
  9 10  1  0
 10 11  2  0
 11 12  1  0
 12 13  2  0
 13 14  1  0
 14 15  2  0
  8 16  1  0
 16 17  2  0
 16 18  1  0
 18 19  1  0
 19 20  1  0
 20 21  1  0
 21 22  1  0
 22 23  1  0
 22 24  2  0
 22 25  2  0
 19 26  1  0
 26 27  2  0
 26 28  1  0
  5 29  1  0
 29 30  1  0
 30 31  1  0
 31 32  1  0
 31 33  1  0
 33 34  1  0
 15 10  1  0
M  CHG  4  28  -1  29   1  32   1  34  -1
M  END
>  <BIOSOLVEIT.HYDE_ESTIMATED_AFFINITY_LOWER_BOUNDARY [nM]>  (1) 
532.207431

>  <BIOSOLVEIT.HYDE_ESTIMATED_AFFINITY_UPPER_BOUNDARY [nM]>  (1) 
52877.954885

>  <BIOSOLVEIT.HYDE_LIGAND_EFFICIENCY range: ++, +, 0, -, -->  (1) 
-

>  <BIOSOLVEIT.HYDE_LIGAND_LIPOPHILIC_EFFICIENCY range: ++, +, 0, -, -->  (1) 
++

>  <BIOSOLVEIT.INTER_CLASH range: red, yellow, green>  (1) 
green

>  <BIOSOLVEIT.INTRA_CLASH range: red, yellow, green>  (1) 
green

>  <BIOSOLVEIT.LOGP>  (1) 
-1.9302

>  <BIOSOLVEIT.MOLECULAR WEIGHT>  (1) 
517.706

>  <BIOSOLVEIT.MOLECULE_CHECKSUM>  (1) 
LTMwLjExMTY7MC44ODU2MzU=

>  <BIOSOLVEIT.TORSION_QUALITY range: red, yellow, green, not rotatable>  (1) 
red

>  <BIOSOLVEIT.TPSA>  (1) 
156.85

$$$$
1SA4_JAN_3
     RDKit          3D

 34 38  0  0  0  0  0  0  0  0999 V2000
   17.0988  137.5235   -5.1346 C   0  0  0  0  0  0  0  0  0  0  0  0
   18.2393  138.0647   -5.8886 N   0  0  0  0  0  0  0  0  0  0  0  0
   18.2706  138.2663   -7.2375 C   0  0  0  0  0  0  0  0  0  0  0  0
   19.4500  138.7614   -7.5420 N   0  0  0  0  0  0  0  0  0  0  0  0
   20.1869  138.8830   -6.3980 C   0  0  0  0  0  0  0  0  0  0  0  0
   19.4304  138.4450   -5.3503 C   0  0  0  0  0  0  0  0  0  0  0  0
   19.8431  138.3994   -3.8655 C   0  0  0  0  0  0  0  0  0  0  0  0
   20.9431  139.3839   -3.7276 N   0  0  0  0  0  0  0  0  0  0  0  0
   20.2713  136.9967   -3.4659 C   0  0  0  0  0  0  0  0  0  0  0  0
   19.8921  135.9174   -4.2582 C   0  0  0  0  0  0  0  0  0  0  0  0
   20.2766  134.6276   -3.9070 C   0  0  0  0  0  0  0  0  0  0  0  0
   21.0392  134.4364   -2.7601 C   0  0  0  0  0  0  0  0  0  0  0  0
   21.5393  132.7920   -2.2967 Cl  0  0  0  0  0  0  0  0  0  0  0  0
   21.4193  135.5138   -1.9673 C   0  0  0  0  0  0  0  0  0  0  0  0
   21.0344  136.8031   -2.3195 C   0  0  0  0  0  0  0  0  0  0  0  0
   18.6674  138.7812   -2.9245 C   0  0  0  0  0  0  0  0  0  0  0  0
   18.3404  140.1178   -2.7423 C   0  0  0  0  0  0  0  0  0  0  0  0
   17.2815  140.4080   -1.8922 C   0  0  0  0  0  0  0  0  0  0  0  0
   16.5745  139.3985   -1.2468 C   0  0  0  0  0  0  0  0  0  0  0  0
   16.9297  138.0728   -1.4528 C   0  0  0  0  0  0  0  0  0  0  0  0
   17.9853  137.7495   -2.2977 C   0  0  0  0  0  0  0  0  0  0  0  0
   16.1948  137.0196   -0.7727 C   0  0  0  0  0  0  0  0  0  0  0  0
   16.5356  135.6202   -0.9519 C   0  0  0  0  0  0  0  0  0  0  0  0
   17.4835  135.0365   -0.1182 C   0  0  0  0  0  0  0  0  0  0  0  0
   17.8044  133.6945   -0.2968 C   0  0  0  0  0  0  0  0  0  0  0  0
   17.1920  132.9395   -1.2914 C   0  0  0  0  0  0  0  0  0  0  0  0
   16.2469  133.5443   -2.1136 C   0  0  0  0  0  0  0  0  0  0  0  0
   15.4527  132.5956   -3.3932 Cl  0  0  0  0  0  0  0  0  0  0  0  0
   15.9111  134.8847   -1.9535 C   0  0  0  0  0  0  0  0  0  0  0  0
   15.1868  137.2763    0.0411 C   0  0  0  0  0  0  0  0  0  0  0  0
   14.7984  138.6556    0.2652 C   0  0  0  0  0  0  0  0  0  0  0  0
   13.8664  138.8929    1.0167 O   0  0  0  0  0  0  0  0  0  0  0  0
   15.5045  139.6759   -0.3862 N   0  0  0  0  0  0  0  0  0  0  0  0
   15.0725  141.0585   -0.1211 C   0  0  0  0  0  0  0  0  0  0  0  0
  1  2  1  0
  2  3  1  0
  3  4  2  0
  4  5  1  0
  5  6  2  0
  6  7  1  0
  7  8  1  0
  7  9  1  0
  9 10  2  0
 10 11  1  0
 11 12  2  0
 12 13  1  0
 12 14  1  0
 14 15  2  0
  7 16  1  0
 16 17  2  0
 17 18  1  0
 18 19  2  0
 19 20  1  0
 20 21  2  0
 20 22  1  0
 22 23  1  0
 23 24  2  0
 24 25  1  0
 25 26  2  0
 26 27  1  0
 27 28  1  0
 27 29  2  0
 22 30  2  0
 30 31  1  0
 31 32  2  0
 31 33  1  0
 33 34  1  0
  6  2  1  0
 15  9  1  0
 21 16  1  0
 29 23  1  0
 33 19  1  0
M  CHG  2   4   1   8   1
M  END
>  <BIOSOLVEIT.HYDE_ESTIMATED_AFFINITY_LOWER_BOUNDARY [nM]>  (2) 
32294.843497

>  <BIOSOLVEIT.HYDE_ESTIMATED_AFFINITY_UPPER_BOUNDARY [nM]>  (2) 
3208683.643612

>  <BIOSOLVEIT.HYDE_LIGAND_EFFICIENCY range: ++, +, 0, -, -->  (2) 
--

>  <BIOSOLVEIT.HYDE_LIGAND_LIPOPHILIC_EFFICIENCY range: ++, +, 0, -, -->  (2) 
--

>  <BIOSOLVEIT.INTER_CLASH range: red, yellow, green>  (2) 
green

>  <BIOSOLVEIT.INTRA_CLASH range: red, yellow, green>  (2) 
yellow

>  <BIOSOLVEIT.LOGP>  (2) 
4.0879

>  <BIOSOLVEIT.MOLECULAR WEIGHT>  (2) 
491.42

>  <BIOSOLVEIT.MOLECULE_CHECKSUM>  (2) 
LTE5LjkzMzk7MC41ODYyOTE=

>  <BIOSOLVEIT.TORSION_QUALITY range: red, yellow, green, not rotatable>  (2) 
yellow

>  <BIOSOLVEIT.TPSA>  (2) 
67.02

$$$$
1MZC_BNE_3
     RDKit          3D

 35 38  0  0  0  0  0  0  0  0999 V2000
   15.6262  137.8925   -9.4103 C   0  0  0  0  0  0  0  0  0  0  0  0
   15.4763  136.5116   -8.7547 C   0  0  0  0  0  0  0  0  0  0  0  0
   16.1535  136.3729   -7.3997 C   0  0  0  0  0  0  0  0  0  0  0  0
   15.9802  134.9319   -6.9431 C   0  0  0  0  0  0  0  0  0  0  0  0
   14.7713  134.2767   -7.1541 C   0  0  0  0  0  0  0  0  0  0  0  0
   14.6353  132.9594   -6.7282 C   0  0  0  0  0  0  0  0  0  0  0  0
   15.6849  132.2973   -6.0998 C   0  0  0  0  0  0  0  0  0  0  0  0
   16.8852  132.9712   -5.8986 C   0  0  0  0  0  0  0  0  0  0  0  0
   17.9089  132.3356   -5.2889 O   0  0  0  0  0  0  0  0  0  0  0  0
   18.3443  132.5973   -3.9823 C   0  0  0  0  0  0  0  0  0  0  0  0
   19.5764  133.2166   -3.8008 C   0  0  0  0  0  0  0  0  0  0  0  0
   20.0151  133.4792   -2.5073 C   0  0  0  0  0  0  0  0  0  0  0  0
   21.3603  134.1554   -2.2970 C   0  0  0  0  0  0  0  0  0  0  0  0
   22.3547  133.8709   -3.4475 C   0  0  0  0  0  0  0  0  0  0  0  0
   21.9319  133.6412   -1.0342 N   0  0  0  0  0  0  0  0  0  0  0  0
   21.1533  135.6781   -2.2486 C   0  0  0  0  0  0  0  0  0  0  0  0
   21.4459  136.5558   -3.2509 C   0  0  0  0  0  0  0  0  0  0  0  0
   21.1101  137.7983   -2.8013 N   0  0  0  0  0  0  0  0  0  0  0  0
   20.6339  137.6891   -1.5795 C   0  0  0  0  0  0  0  0  0  0  0  0
   20.6398  136.3814   -1.2050 N   0  0  0  0  0  0  0  0  0  0  0  0
   20.1878  135.8329    0.0824 C   0  0  0  0  0  0  0  0  0  0  0  0
   19.2417  133.1320   -1.4041 C   0  0  0  0  0  0  0  0  0  0  0  0
   18.0112  132.5132   -1.5978 C   0  0  0  0  0  0  0  0  0  0  0  0
   17.5622  132.2459   -2.8870 C   0  0  0  0  0  0  0  0  0  0  0  0
   16.2175  131.5697   -3.0987 C   0  0  0  0  0  0  0  0  0  0  0  0
   15.1936  131.0553   -3.2608 N   0  0  0  0  0  0  0  0  0  0  0  0
   17.0427  134.2883   -6.3166 C   0  0  0  0  0  0  0  0  0  0  0  0
   15.4520  137.2305   -6.3538 C   0  0  0  0  0  0  0  0  0  0  0  0
   15.8875  138.6920   -6.3325 C   0  0  0  0  0  0  0  0  0  0  0  0
   17.0701  138.8961   -5.3996 C   0  0  0  0  0  0  0  0  0  0  0  0
   17.8068  137.5706   -5.2897 C   0  0  0  0  0  0  0  0  0  0  0  0
   18.4442  137.2129   -6.5665 N   0  0  0  0  0  0  0  0  0  0  0  0
   19.8807  137.4655   -6.7630 C   0  0  0  0  0  0  0  0  0  0  0  0
   17.6466  136.6347   -7.5677 C   0  0  0  0  0  0  0  0  0  0  0  0
   18.1792  136.3344   -8.6210 O   0  0  0  0  0  0  0  0  0  0  0  0
  1  2  1  0
  2  3  1  0
  3  4  1  0
  4  5  2  0
  5  6  1  0
  6  7  2  0
  7  8  1  0
  8  9  1  0
  9 10  1  0
 10 11  2  0
 11 12  1  0
 12 13  1  0
 13 14  1  0
 13 15  1  0
 13 16  1  0
 16 17  2  0
 17 18  1  0
 18 19  2  0
 19 20  1  0
 20 21  1  0
 12 22  2  0
 22 23  1  0
 23 24  2  0
 24 25  1  0
 25 26  3  0
  8 27  2  0
  3 28  1  0
 28 29  1  0
 29 30  1  0
 30 31  1  0
 31 32  1  0
 32 33  1  0
 32 34  1  0
 34 35  2  0
 34  3  1  0
 27  4  1  0
 24 10  1  0
 20 16  1  0
M  END
>  <BIOSOLVEIT.HYDE_ESTIMATED_AFFINITY_LOWER_BOUNDARY [nM]>  (3) 
50703586.816085

>  <BIOSOLVEIT.HYDE_ESTIMATED_AFFINITY_UPPER_BOUNDARY [nM]>  (3) 
5037701133.508516

>  <BIOSOLVEIT.HYDE_LIGAND_EFFICIENCY range: ++, +, 0, -, -->  (3) 
--

>  <BIOSOLVEIT.HYDE_LIGAND_LIPOPHILIC_EFFICIENCY range: ++, +, 0, -, -->  (3) 
--

>  <BIOSOLVEIT.INTER_CLASH range: red, yellow, green>  (3) 
green

>  <BIOSOLVEIT.INTRA_CLASH range: red, yellow, green>  (3) 
green

>  <BIOSOLVEIT.LOGP>  (3) 
4.59638

>  <BIOSOLVEIT.MOLECULAR WEIGHT>  (3) 
471.602

>  <BIOSOLVEIT.MOLECULE_CHECKSUM>  (3) 
LTEuNjkxNjU7MC4wNDgzMzI5

>  <BIOSOLVEIT.TORSION_QUALITY range: red, yellow, green, not rotatable>  (3) 
green

>  <BIOSOLVEIT.TPSA>  (3) 
97.17

$$$$
1LD7_U66_1
     RDKit          3D

 34 39  0  0  0  0  0  0  0  0999 V2000
   15.5957  137.4314   -1.0409 N   0  0  0  0  0  0  0  0  0  0  0  0
   16.2021  137.9716   -0.2160 C   0  0  0  0  0  0  0  0  0  0  0  0
   16.9727  138.6578    0.8409 C   0  0  0  0  0  0  0  0  0  0  0  0
   16.5212  138.1494    2.2201 C   0  0  0  0  0  0  0  0  0  0  0  0
   16.9545  136.7226    2.4638 C   0  0  0  0  0  0  0  0  0  0  0  0
   18.0422  136.1791    1.8721 C   0  0  0  0  0  0  0  0  0  0  0  0
   18.8647  136.9423    0.8528 C   0  0  0  0  0  0  0  0  0  0  0  0
   18.4964  138.4304    0.7142 C   0  0  0  0  0  0  0  0  0  0  0  0
   19.0696  139.0232   -0.4652 O   0  0  0  0  0  0  0  0  0  0  0  0
   18.7246  138.6885   -1.7816 C   0  0  0  0  0  0  0  0  0  0  0  0
   17.8038  139.4831   -2.4675 C   0  0  0  0  0  0  0  0  0  0  0  0
   17.4002  139.1411   -3.7563 C   0  0  0  0  0  0  0  0  0  0  0  0
   17.9149  137.9946   -4.3787 C   0  0  0  0  0  0  0  0  0  0  0  0
   17.4775  137.6463   -5.6629 C   0  0  0  0  0  0  0  0  0  0  0  0
   17.9743  136.5068   -6.2881 C   0  0  0  0  0  0  0  0  0  0  0  0
   18.9120  135.7031   -5.6429 C   0  0  0  0  0  0  0  0  0  0  0  0
   19.3809  136.0261   -4.3573 C   0  0  0  0  0  0  0  0  0  0  0  0
   18.8795  137.1907   -3.7104 C   0  0  0  0  0  0  0  0  0  0  0  0
   19.3103  137.5859   -2.4253 C   0  0  0  0  0  0  0  0  0  0  0  0
   20.3391  135.1509   -3.7272 N   0  0  0  0  0  0  0  0  0  0  0  0
   21.5346  134.6208   -4.3711 C   0  0  0  0  0  0  0  0  0  0  0  0
   21.9322  133.3779   -3.5525 C   0  0  0  0  0  0  0  0  0  0  0  0
   21.2688  133.5433   -2.1704 C   0  0  0  0  0  0  0  0  0  0  0  0
   22.2335  134.1436   -1.2196 N   0  0  0  0  0  0  0  0  0  0  0  0
   21.6502  134.6129    0.0486 C   0  0  0  0  0  0  0  0  0  0  0  0
   21.0797  133.4799    0.9149 C   0  0  0  0  0  0  0  0  0  0  0  0
   20.7959  133.9836    2.3081 C   0  0  0  0  0  0  0  0  0  0  0  0
   21.7268  134.0461    3.3233 C   0  0  0  0  0  0  0  0  0  0  0  0
   21.1744  134.6278    4.4063 N   0  0  0  0  0  0  0  0  0  0  0  0
   19.9132  134.9188    4.0253 C   0  0  0  0  0  0  0  0  0  0  0  0
   19.6535  134.5533    2.7533 N   0  0  0  0  0  0  0  0  0  0  0  0
   18.3649  134.7144    2.0758 C   0  0  0  0  0  0  0  0  0  0  0  0
   20.1412  134.4577   -2.5065 C   0  0  0  0  0  0  0  0  0  0  0  0
   19.0702  134.5215   -1.8459 O   0  0  0  0  0  0  0  0  0  0  0  0
  1  2  3  0
  2  3  1  0
  3  4  1  0
  4  5  1  0
  5  6  2  0
  6  7  1  0
  7  8  1  0
  8  9  1  0
  9 10  1  0
 10 11  2  0
 11 12  1  0
 12 13  2  0
 13 14  1  0
 14 15  2  0
 15 16  1  0
 16 17  2  0
 17 18  1  0
 18 19  2  0
 17 20  1  0
 20 21  1  0
 21 22  1  0
 22 23  1  0
 23 24  1  0
 24 25  1  0
 25 26  1  0
 26 27  1  0
 27 28  2  0
 28 29  1  0
 29 30  2  0
 30 31  1  0
 31 32  1  0
 23 33  1  0
 33 34  2  0
  8  3  1  0
 19 10  1  0
 33 20  1  0
 32  6  1  0
 18 13  1  0
 31 27  1  0
M  CHG  1  24   1
M  END
>  <BIOSOLVEIT.HYDE_ESTIMATED_AFFINITY_LOWER_BOUNDARY [nM]>  (4) 
147748443.205962

>  <BIOSOLVEIT.HYDE_ESTIMATED_AFFINITY_UPPER_BOUNDARY [nM]>  (4) 
14679681390.442978

>  <BIOSOLVEIT.HYDE_LIGAND_EFFICIENCY range: ++, +, 0, -, -->  (4) 
--

>  <BIOSOLVEIT.HYDE_LIGAND_LIPOPHILIC_EFFICIENCY range: ++, +, 0, -, -->  (4) 
--

>  <BIOSOLVEIT.INTER_CLASH range: red, yellow, green>  (4) 
green

>  <BIOSOLVEIT.INTRA_CLASH range: red, yellow, green>  (4) 
green

>  <BIOSOLVEIT.LOGP>  (4) 
2.56868

>  <BIOSOLVEIT.MOLECULAR WEIGHT>  (4) 
454.551

>  <BIOSOLVEIT.MOLECULE_CHECKSUM>  (4) 
MC45NTk2Mjk7MA==

>  <BIOSOLVEIT.TORSION_QUALITY range: red, yellow, green, not rotatable>  (4) 
not rotatable

>  <BIOSOLVEIT.TPSA>  (4) 
87.76

$$$$
1S63_778_1
     RDKit          3D

 29 32  0  0  0  0  0  0  0  0999 V2000
   18.4318  132.9185    3.1872 N   0  0  0  0  0  0  0  0  0  0  0  0
   18.6131  132.8993    2.0446 C   0  0  0  0  0  0  0  0  0  0  0  0
   18.8352  132.8737    0.6229 C   0  0  0  0  0  0  0  0  0  0  0  0
   17.9316  133.5127   -0.2204 C   0  0  0  0  0  0  0  0  0  0  0  0
   18.1339  133.4968   -1.5964 C   0  0  0  0  0  0  0  0  0  0  0  0
   19.2448  132.8368   -2.1113 C   0  0  0  0  0  0  0  0  0  0  0  0
   19.4770  132.8103   -3.6132 C   0  0  0  0  0  0  0  0  0  0  0  0
   20.5460  133.7343   -4.0028 N   0  0  0  0  0  0  0  0  0  0  0  0
   21.8827  133.5014   -3.8600 C   0  0  0  0  0  0  0  0  0  0  0  0
   22.5247  134.5520   -4.3214 N   0  0  0  0  0  0  0  0  0  0  0  0
   21.6125  135.4680   -4.7637 C   0  0  0  0  0  0  0  0  0  0  0  0
   20.3618  134.9600   -4.5659 C   0  0  0  0  0  0  0  0  0  0  0  0
   19.0405  135.6269   -4.9111 C   0  0  0  0  0  0  0  0  0  0  0  0
   19.1766  137.0798   -5.1945 N   0  0  0  0  0  0  0  0  0  0  0  0
   17.8902  137.7382   -4.8705 C   0  0  0  0  0  0  0  0  0  0  0  0
   17.1644  138.4452   -6.0099 C   0  0  0  0  0  0  0  0  0  0  0  0
   17.3361  137.8008   -7.3233 N   0  0  0  0  0  0  0  0  0  0  0  0
   16.2763  137.7711   -8.2381 C   0  0  0  0  0  0  0  0  0  0  0  0
   16.4186  138.4011   -9.4703 C   0  0  0  0  0  0  0  0  0  0  0  0
   15.3632  138.3670  -10.3758 C   0  0  0  0  0  0  0  0  0  0  0  0
   14.1761  137.7139  -10.0623 C   0  0  0  0  0  0  0  0  0  0  0  0
   14.0551  137.0900   -8.8246 C   0  0  0  0  0  0  0  0  0  0  0  0
   12.5443  136.2484   -8.4045 Cl  0  0  0  0  0  0  0  0  0  0  0  0
   15.0978  137.1118   -7.9043 C   0  0  0  0  0  0  0  0  0  0  0  0
   18.5739  137.2144   -7.6254 C   0  0  0  0  0  0  0  0  0  0  0  0
   18.7649  136.6735   -8.7043 O   0  0  0  0  0  0  0  0  0  0  0  0
   19.6765  137.2607   -6.5684 C   0  0  0  0  0  0  0  0  0  0  0  0
   20.1499  132.1963   -1.2712 C   0  0  0  0  0  0  0  0  0  0  0  0
   19.9452  132.2143    0.1048 C   0  0  0  0  0  0  0  0  0  0  0  0
  1  2  3  0
  2  3  1  0
  3  4  2  0
  4  5  1  0
  5  6  2  0
  6  7  1  0
  7  8  1  0
  8  9  1  0
  9 10  2  0
 10 11  1  0
 11 12  2  0
 12 13  1  0
 13 14  1  0
 14 15  1  0
 15 16  1  0
 16 17  1  0
 17 18  1  0
 18 19  2  0
 19 20  1  0
 20 21  2  0
 21 22  1  0
 22 23  1  0
 22 24  2  0
 17 25  1  0
 25 26  2  0
 25 27  1  0
  6 28  1  0
 28 29  2  0
 29  3  1  0
 12  8  1  0
 27 14  1  0
 24 18  1  0
M  CHG  1  14   1
M  END
>  <BIOSOLVEIT.HYDE_ESTIMATED_AFFINITY_LOWER_BOUNDARY [nM]>  (5) 
2396154.361579

>  <BIOSOLVEIT.HYDE_ESTIMATED_AFFINITY_UPPER_BOUNDARY [nM]>  (5) 
238072103.008652

>  <BIOSOLVEIT.HYDE_LIGAND_EFFICIENCY range: ++, +, 0, -, -->  (5) 
--

>  <BIOSOLVEIT.HYDE_LIGAND_LIPOPHILIC_EFFICIENCY range: ++, +, 0, -, -->  (5) 
--

>  <BIOSOLVEIT.INTER_CLASH range: red, yellow, green>  (5) 
green

>  <BIOSOLVEIT.INTRA_CLASH range: red, yellow, green>  (5) 
green

>  <BIOSOLVEIT.LOGP>  (5) 
1.88818

>  <BIOSOLVEIT.MOLECULAR WEIGHT>  (5) 
406.895

>  <BIOSOLVEIT.MOLECULE_CHECKSUM>  (5) 
LTkuMjU3NzU7MC4zMTkyMzM=

>  <BIOSOLVEIT.TORSION_QUALITY range: red, yellow, green, not rotatable>  (5) 
green

>  <BIOSOLVEIT.TPSA>  (5) 
66.36

$$$$
3E37_ED5_2
     RDKit          3D

 43 46  0  0  0  0  0  0  0  0999 V2000
   21.1681  133.1476   -3.2843 C   0  0  0  0  0  0  0  0  0  0  0  0
   21.1564  133.4356   -1.7918 C   0  0  0  0  0  0  0  0  0  0  0  0
   20.8866  132.3858   -0.9198 C   0  0  0  0  0  0  0  0  0  0  0  0
   20.8700  132.6236    0.4503 C   0  0  0  0  0  0  0  0  0  0  0  0
   21.1217  133.9022    0.9370 C   0  0  0  0  0  0  0  0  0  0  0  0
   21.3915  134.9532    0.0665 C   0  0  0  0  0  0  0  0  0  0  0  0
   21.4077  134.7150   -1.3043 C   0  0  0  0  0  0  0  0  0  0  0  0
   21.7537  136.0672   -2.3992 S   0  0  0  0  0  0  0  0  0  0  0  0
   22.5302  137.1065   -1.6405 O   0  0  0  0  0  0  0  0  0  0  0  0
   22.6098  135.5910   -3.5412 O   0  0  0  0  0  0  0  0  0  0  0  0
   20.2877  136.7908   -3.0273 N   0  0  0  0  0  0  0  0  0  0  0  0
   19.5871  137.6238   -2.0193 C   0  0  0  0  0  0  0  0  0  0  0  0
   18.6082  136.8519   -1.1128 C   0  0  0  0  0  0  0  0  0  0  0  0
   17.2168  137.0082   -1.5715 N   0  0  0  0  0  0  0  0  0  0  0  0
   16.5359  138.3131   -1.5126 C   0  0  0  0  0  0  0  0  0  0  0  0
   15.7515  138.4707   -0.2379 C   0  0  0  0  0  0  0  0  0  0  0  0
   14.4311  138.1723   -0.0710 C   0  0  0  0  0  0  0  0  0  0  0  0
   14.1203  138.4573    1.2256 N   0  0  0  0  0  0  0  0  0  0  0  0
   15.1994  138.9102    1.8270 C   0  0  0  0  0  0  0  0  0  0  0  0
   16.2368  138.9260    0.9473 N   0  0  0  0  0  0  0  0  0  0  0  0
   17.6151  139.3600    1.2202 C   0  0  0  0  0  0  0  0  0  0  0  0
   16.4743  135.8508   -1.9945 C   0  0  0  0  0  0  0  0  0  0  0  0
   15.3195  136.0196   -2.7518 C   0  0  0  0  0  0  0  0  0  0  0  0
   14.5918  134.9094   -3.1668 C   0  0  0  0  0  0  0  0  0  0  0  0
   15.0341  133.6385   -2.8163 C   0  0  0  0  0  0  0  0  0  0  0  0
   14.2490  132.4168   -3.2647 C   0  0  0  0  0  0  0  0  0  0  0  0
   13.6513  131.4866   -3.6060 N   0  0  0  0  0  0  0  0  0  0  0  0
   16.1885  133.4645   -2.0596 C   0  0  0  0  0  0  0  0  0  0  0  0
   16.9133  134.5776   -1.6460 C   0  0  0  0  0  0  0  0  0  0  0  0
   19.4583  135.7559   -3.6840 C   0  0  0  0  0  0  0  0  0  0  0  0
   18.7224  136.2703   -4.9121 C   0  0  0  0  0  0  0  0  0  0  0  0
   19.7263  136.3687   -6.0512 C   0  0  0  0  0  0  0  0  0  0  0  0
   19.2761  137.4541   -7.0113 C   0  0  0  0  0  0  0  0  0  0  0  0
   17.8063  137.4031   -7.0124 N   0  0  0  0  0  0  0  0  0  0  0  0
   17.0443  136.8691   -8.1142 C   0  0  0  0  0  0  0  0  0  0  0  0
   17.6282  136.5372   -9.1814 O   0  0  0  0  0  0  0  0  0  0  0  0
   15.6524  136.7230   -7.9913 O   0  0  0  0  0  0  0  0  0  0  0  0
   14.7756  136.0787   -8.9272 C   0  0  0  0  0  0  0  0  0  0  0  0
   15.1084  134.5786   -9.0386 C   0  0  0  0  0  0  0  0  0  0  0  0
   14.8601  136.7588  -10.3072 C   0  0  0  0  0  0  0  0  0  0  0  0
   13.3459  136.2307   -8.3864 C   0  0  0  0  0  0  0  0  0  0  0  0
   17.1635  137.9300   -5.8055 C   0  0  0  0  0  0  0  0  0  0  0  0
   18.0643  137.6120   -4.6254 C   0  0  0  0  0  0  0  0  0  0  0  0
  1  2  1  0
  2  3  2  0
  3  4  1  0
  4  5  2  0
  5  6  1  0
  6  7  2  0
  7  8  1  0
  8  9  2  0
  8 10  2  0
  8 11  1  0
 11 12  1  0
 12 13  1  0
 13 14  1  0
 14 15  1  0
 15 16  1  0
 16 17  2  0
 17 18  1  0
 18 19  2  0
 19 20  1  0
 20 21  1  0
 14 22  1  0
 22 23  2  0
 23 24  1  0
 24 25  2  0
 25 26  1  0
 26 27  3  0
 25 28  1  0
 28 29  2  0
 11 30  1  0
 30 31  1  0
 31 32  1  0
 32 33  1  0
 33 34  1  0
 34 35  1  0
 35 36  2  0
 35 37  1  0
 37 38  1  0
 38 39  1  0
 38 40  1  0
 38 41  1  0
 34 42  1  0
 42 43  1  0
  7  2  1  0
 20 16  1  0
 29 22  1  0
 43 31  1  0
M  END
>  <BIOSOLVEIT.HYDE_ESTIMATED_AFFINITY_LOWER_BOUNDARY [nM]>  (6) 
2112360.941159

>  <BIOSOLVEIT.HYDE_ESTIMATED_AFFINITY_UPPER_BOUNDARY [nM]>  (6) 
209875548.770432

>  <BIOSOLVEIT.HYDE_LIGAND_EFFICIENCY range: ++, +, 0, -, -->  (6) 
--

>  <BIOSOLVEIT.HYDE_LIGAND_LIPOPHILIC_EFFICIENCY range: ++, +, 0, -, -->  (6) 
--

>  <BIOSOLVEIT.INTER_CLASH range: red, yellow, green>  (6) 
green

>  <BIOSOLVEIT.INTRA_CLASH range: red, yellow, green>  (6) 
yellow

>  <BIOSOLVEIT.LOGP>  (6) 
5.5954

>  <BIOSOLVEIT.MOLECULAR WEIGHT>  (6) 
606.787

>  <BIOSOLVEIT.MOLECULE_CHECKSUM>  (6) 
LTkuNTcwMjU7MC4yMjI1NjQ=

>  <BIOSOLVEIT.TORSION_QUALITY range: red, yellow, green, not rotatable>  (6) 
yellow

>  <BIOSOLVEIT.TPSA>  (6) 
111.77

$$$$
2IEJ_FII_2
     RDKit          3D

 24 23  0  0  0  0  0  0  0  0999 V2000
   15.8838  137.4587    2.2432 C   0  0  0  0  0  0  0  0  0  0  0  0
   15.1391  137.3671    0.9323 C   0  0  0  0  0  0  0  0  0  0  0  0
   14.0295  138.3434    0.6385 C   0  0  0  0  0  0  0  0  0  0  0  0
   15.4235  136.4211    0.0105 C   0  0  0  0  0  0  0  0  0  0  0  0
   16.4913  135.3644    0.1675 C   0  0  0  0  0  0  0  0  0  0  0  0
   17.2068  135.0779   -1.1605 C   0  0  0  0  0  0  0  0  0  0  0  0
   16.7056  133.8057   -1.8141 C   0  0  0  0  0  0  0  0  0  0  0  0
   17.4892  132.5278   -1.6298 C   0  0  0  0  0  0  0  0  0  0  0  0
   15.5758  133.8512   -2.5546 C   0  0  0  0  0  0  0  0  0  0  0  0
   14.9588  132.6675   -3.2629 C   0  0  0  0  0  0  0  0  0  0  0  0
   13.6964  133.0531   -4.0527 C   0  0  0  0  0  0  0  0  0  0  0  0
   14.0273  133.7109   -5.3785 C   0  0  0  0  0  0  0  0  0  0  0  0
   13.7978  135.1956   -5.5425 C   0  0  0  0  0  0  0  0  0  0  0  0
   14.5350  132.9576   -6.3794 C   0  0  0  0  0  0  0  0  0  0  0  0
   14.9016  133.4944   -7.7356 C   0  0  0  0  0  0  0  0  0  0  0  0
   16.3037  133.4629   -7.8842 O   0  0  0  0  0  0  0  0  0  0  0  0
   16.7253  134.7442   -8.0516 N   0  0  0  0  0  0  0  0  0  0  0  0
   17.5277  135.3900   -7.0564 C   0  0  0  0  0  0  0  0  0  0  0  0
   17.9041  136.5785   -7.2386 O   0  0  0  0  0  0  0  0  0  0  0  0
   17.8897  134.6891   -5.7803 C   0  0  0  0  0  0  0  0  0  0  0  0
   18.9572  135.7478   -4.7574 P   0  0  0  0  0  0  0  0  0  0  0  0
   20.1331  136.2273   -5.5772 O   0  0  0  0  0  0  0  0  0  0  0  0
   18.0837  137.0828   -4.1961 O   0  0  0  0  0  0  0  0  0  0  0  0
   19.5227  134.8554   -3.4374 O   0  0  0  0  0  0  0  0  0  0  0  0
  1  2  1  0
  2  3  1  0
  2  4  2  3
  4  5  1  0
  5  6  1  0
  6  7  1  0
  7  8  1  0
  7  9  2  0
  9 10  1  0
 10 11  1  0
 11 12  1  0
 12 13  1  0
 12 14  2  0
 14 15  1  0
 15 16  1  0
 16 17  1  0
 17 18  1  0
 18 19  2  0
 18 20  1  0
 20 21  1  0
 21 22  2  0
 21 23  1  0
 21 24  1  0
M  CHG  2  23  -1  24  -1
M  END
>  <BIOSOLVEIT.HYDE_ESTIMATED_AFFINITY_LOWER_BOUNDARY [nM]>  (7) 
1710.061722

>  <BIOSOLVEIT.HYDE_ESTIMATED_AFFINITY_UPPER_BOUNDARY [nM]>  (7) 
169904.742743

>  <BIOSOLVEIT.HYDE_LIGAND_EFFICIENCY range: ++, +, 0, -, -->  (7) 
-

>  <BIOSOLVEIT.HYDE_LIGAND_LIPOPHILIC_EFFICIENCY range: ++, +, 0, -, -->  (7) 
-

>  <BIOSOLVEIT.INTER_CLASH range: red, yellow, green>  (7) 
green

>  <BIOSOLVEIT.INTRA_CLASH range: red, yellow, green>  (7) 
green

>  <BIOSOLVEIT.LOGP>  (7) 
2.3671

>  <BIOSOLVEIT.MOLECULAR WEIGHT>  (7) 
357.384

>  <BIOSOLVEIT.MOLECULE_CHECKSUM>  (7) 
LTI3LjIxODsxLjEzNDA4

>  <BIOSOLVEIT.TORSION_QUALITY range: red, yellow, green, not rotatable>  (7) 
yellow

>  <BIOSOLVEIT.TPSA>  (7) 
101.52

$$$$
2IEJ_S48_1
     RDKit          3D

 38 42  0  0  0  0  0  0  0  0999 V2000
   15.1955  135.0376   -9.1929 C   0  0  0  0  0  0  0  0  0  0  0  0
   15.8906  135.5440   -8.0602 O   0  0  0  0  0  0  0  0  0  0  0  0
   17.2383  135.9119   -8.1072 C   0  0  0  0  0  0  0  0  0  0  0  0
   17.7924  136.1869   -9.2073 O   0  0  0  0  0  0  0  0  0  0  0  0
   18.0194  136.0171   -6.8334 C   0  0  0  0  0  0  0  0  0  0  0  0
   17.9866  137.4059   -6.3145 N   0  0  0  0  0  0  0  0  0  0  0  0
   17.2546  137.5385   -5.0146 C   0  0  0  0  0  0  0  0  0  0  0  0
   17.9457  136.6478   -3.9949 C   0  0  0  0  0  0  0  0  0  0  0  0
   17.1209  136.7656   -2.7261 C   0  0  0  0  0  0  0  0  0  0  0  0
   17.7518  136.9332   -1.4988 C   0  0  0  0  0  0  0  0  0  0  0  0
   16.9636  137.0770   -0.3603 C   0  0  0  0  0  0  0  0  0  0  0  0
   17.6118  137.2951    0.9186 C   0  0  0  0  0  0  0  0  0  0  0  0
   19.0005  137.2885    0.9916 C   0  0  0  0  0  0  0  0  0  0  0  0
   19.6157  137.4978    2.2213 C   0  0  0  0  0  0  0  0  0  0  0  0
   18.8522  137.7113    3.3634 C   0  0  0  0  0  0  0  0  0  0  0  0
   17.4633  137.7159    3.2810 C   0  0  0  0  0  0  0  0  0  0  0  0
   16.8389  137.5075    2.0557 C   0  0  0  0  0  0  0  0  0  0  0  0
   15.5759  137.0261   -0.4359 C   0  0  0  0  0  0  0  0  0  0  0  0
   14.9800  136.8356   -1.6789 C   0  0  0  0  0  0  0  0  0  0  0  0
   15.7355  136.7009   -2.8386 C   0  0  0  0  0  0  0  0  0  0  0  0
   15.1596  136.5218   -4.1106 N   0  0  0  0  0  0  0  0  0  0  0  0
   13.9459  135.7173   -4.3158 C   0  0  0  0  0  0  0  0  0  0  0  0
   14.2387  134.2539   -4.1329 C   0  0  0  0  0  0  0  0  0  0  0  0
   14.4763  133.6297   -2.9436 C   0  0  0  0  0  0  0  0  0  0  0  0
   14.6921  132.3127   -3.2224 N   0  0  0  0  0  0  0  0  0  0  0  0
   14.5922  132.1361   -4.5225 C   0  0  0  0  0  0  0  0  0  0  0  0
   14.3039  133.3229   -5.1212 N   0  0  0  0  0  0  0  0  0  0  0  0
   14.1092  133.5583   -6.5597 C   0  0  0  0  0  0  0  0  0  0  0  0
   15.7930  137.1918   -5.2584 C   0  0  0  0  0  0  0  0  0  0  0  0
   19.6445  138.0073   -6.2025 S   0  0  0  0  0  0  0  0  0  0  0  0
   20.3663  137.8757   -7.5153 O   0  0  0  0  0  0  0  0  0  0  0  0
   19.6074  139.4677   -5.8484 O   0  0  0  0  0  0  0  0  0  0  0  0
   20.5837  137.1503   -4.9872 C   0  0  0  0  0  0  0  0  0  0  0  0
   21.2193  135.9621   -5.1799 C   0  0  0  0  0  0  0  0  0  0  0  0
   21.8134  135.6697   -3.9929 N   0  0  0  0  0  0  0  0  0  0  0  0
   22.6237  134.4773   -3.7062 C   0  0  0  0  0  0  0  0  0  0  0  0
   21.5333  136.6704   -3.1140 C   0  0  0  0  0  0  0  0  0  0  0  0
   20.7884  137.5737   -3.7075 N   0  0  0  0  0  0  0  0  0  0  0  0
  1  2  1  0
  2  3  1  0
  3  4  2  0
  3  5  1  0
  5  6  1  0
  6  7  1  0
  7  8  1  0
  8  9  1  0
  9 10  2  0
 10 11  1  0
 11 12  1  0
 12 13  2  0
 13 14  1  0
 14 15  2  0
 15 16  1  0
 16 17  2  0
 11 18  2  0
 18 19  1  0
 19 20  2  0
 20 21  1  0
 21 22  1  0
 22 23  1  0
 23 24  2  0
 24 25  1  0
 25 26  2  0
 26 27  1  0
 27 28  1  0
 21 29  1  0
  6 30  1  0
 30 31  2  0
 30 32  2  0
 30 33  1  0
 33 34  2  0
 34 35  1  0
 35 36  1  0
 35 37  1  0
 37 38  2  0
 29  7  1  0
 38 33  1  0
 20  9  1  0
 27 23  1  0
 17 12  1  0
M  END
>  <BIOSOLVEIT.HYDE_ESTIMATED_AFFINITY_LOWER_BOUNDARY [nM]>  (8) 
8484772.568774

>  <BIOSOLVEIT.HYDE_ESTIMATED_AFFINITY_UPPER_BOUNDARY [nM]>  (8) 
843012320.653321

>  <BIOSOLVEIT.HYDE_LIGAND_EFFICIENCY range: ++, +, 0, -, -->  (8) 
--

>  <BIOSOLVEIT.HYDE_LIGAND_LIPOPHILIC_EFFICIENCY range: ++, +, 0, -, -->  (8) 
--

>  <BIOSOLVEIT.INTER_CLASH range: red, yellow, green>  (8) 
green

>  <BIOSOLVEIT.INTRA_CLASH range: red, yellow, green>  (8) 
red

>  <BIOSOLVEIT.LOGP>  (8) 
3.2664

>  <BIOSOLVEIT.MOLECULAR WEIGHT>  (8) 
534.637

>  <BIOSOLVEIT.MOLECULE_CHECKSUM>  (8) 
LTYuMTIzMzQ7MC4xNjExNDE=

>  <BIOSOLVEIT.TORSION_QUALITY range: red, yellow, green, not rotatable>  (8) 
red

>  <BIOSOLVEIT.TPSA>  (8) 
102.56

$$$$
1LD8_FPP_2
     RDKit          3D

 24 23  0  0  0  0  0  0  0  0999 V2000
   13.9145  132.9085   -4.4398 C   0  0  0  0  0  0  0  0  0  0  0  0
   14.4441  131.7676   -3.6037 C   0  0  0  0  0  0  0  0  0  0  0  0
   13.5076  130.6725   -3.1628 C   0  0  0  0  0  0  0  0  0  0  0  0
   15.7444  131.6834   -3.2468 C   0  0  0  0  0  0  0  0  0  0  0  0
   16.8060  132.6893   -3.6261 C   0  0  0  0  0  0  0  0  0  0  0  0
   18.1425  132.0102   -3.9597 C   0  0  0  0  0  0  0  0  0  0  0  0
   19.2755  132.5468   -3.1086 C   0  0  0  0  0  0  0  0  0  0  0  0
   19.1925  132.4102   -1.6059 C   0  0  0  0  0  0  0  0  0  0  0  0
   20.3293  133.1401   -3.7141 C   0  0  0  0  0  0  0  0  0  0  0  0
   21.5170  133.7135   -2.9838 C   0  0  0  0  0  0  0  0  0  0  0  0
   22.2795  134.6943   -3.8816 C   0  0  0  0  0  0  0  0  0  0  0  0
   21.4205  135.8919   -4.2209 C   0  0  0  0  0  0  0  0  0  0  0  0
   20.8343  136.7190   -3.1005 C   0  0  0  0  0  0  0  0  0  0  0  0
   21.1910  136.1926   -5.5190 C   0  0  0  0  0  0  0  0  0  0  0  0
   20.3544  137.3570   -5.9733 C   0  0  0  0  0  0  0  0  0  0  0  0
   20.2863  137.3585   -7.3788 O   0  0  0  0  0  0  0  0  0  0  0  0
   18.7284  136.8418   -7.8461 P   0  0  0  0  0  0  0  0  0  0  0  0
   18.1259  136.0141   -6.7333 O   0  0  0  0  0  0  0  0  0  0  0  0
   18.8093  135.8943   -9.2474 O   0  0  0  0  0  0  0  0  0  0  0  0
   17.7158  138.1803   -8.1234 O   0  0  0  0  0  0  0  0  0  0  0  0
   16.2452  137.5903   -8.7433 P   0  0  0  0  0  0  0  0  0  0  0  0
   16.5203  136.8833  -10.0502 O   0  0  0  0  0  0  0  0  0  0  0  0
   15.5612  136.4834   -7.6617 O   0  0  0  0  0  0  0  0  0  0  0  0
   15.1529  138.8518   -9.0284 O   0  0  0  0  0  0  0  0  0  0  0  0
  1  2  1  0
  2  3  1  0
  2  4  2  3
  4  5  1  0
  5  6  1  0
  6  7  1  0
  7  8  1  0
  7  9  2  0
  9 10  1  0
 10 11  1  0
 11 12  1  0
 12 13  1  0
 12 14  2  0
 14 15  1  0
 15 16  1  0
 16 17  1  0
 17 18  2  0
 17 19  1  0
 17 20  1  0
 20 21  1  0
 21 22  2  0
 21 23  1  0
 21 24  1  0
M  CHG  3  19  -1  23  -1  24  -1
M  END
>  <BIOSOLVEIT.HYDE_ESTIMATED_AFFINITY_LOWER_BOUNDARY [nM]>  (9) 
718280.389979

>  <BIOSOLVEIT.HYDE_ESTIMATED_AFFINITY_UPPER_BOUNDARY [nM]>  (9) 
71365403.554204

>  <BIOSOLVEIT.HYDE_LIGAND_EFFICIENCY range: ++, +, 0, -, -->  (9) 
--

>  <BIOSOLVEIT.HYDE_LIGAND_LIPOPHILIC_EFFICIENCY range: ++, +, 0, -, -->  (9) 
--

>  <BIOSOLVEIT.INTER_CLASH range: red, yellow, green>  (9) 
green

>  <BIOSOLVEIT.INTRA_CLASH range: red, yellow, green>  (9) 
yellow

>  <BIOSOLVEIT.LOGP>  (9) 
2.7359

>  <BIOSOLVEIT.MOLECULAR WEIGHT>  (9) 
379.304

>  <BIOSOLVEIT.MOLECULE_CHECKSUM>  (9) 
LTEyLjI0NDM7MC41MTAxNzk=

>  <BIOSOLVEIT.TORSION_QUALITY range: red, yellow, green, not rotatable>  (9) 
red

>  <BIOSOLVEIT.TPSA>  (9) 
121.78

$$$$
