1JCQ_739_3
     RDKit          3D

 34 34  0  0  0  0  0  0  0  0999 V2000
   22.9813  139.8540   -0.9869 C   0  0  0  0  0  0  0  0  0  0  0  0
   23.1553  139.2586    0.4107 C   0  0  0  0  0  0  0  0  0  0  0  0
   22.0499  138.2159    0.7521 C   0  0  0  0  0  0  0  0  0  0  0  0
   20.6867  138.7727    0.2919 C   0  0  0  0  0  0  0  0  0  0  0  0
   22.3874  136.8164    0.1251 C   0  0  0  0  0  0  0  0  0  0  0  0
   21.2923  136.3057   -0.8595 C   0  0  0  0  0  0  0  0  0  0  0  0
   21.8087  135.3518   -1.7740 O   0  0  0  0  0  0  0  0  0  0  0  0
   21.0021  135.2497   -2.9383 C   0  0  0  0  0  0  0  0  0  0  0  0
   20.7078  133.7624   -3.2230 C   0  0  0  0  0  0  0  0  0  0  0  0
   20.1443  133.0172   -2.0341 C   0  0  0  0  0  0  0  0  0  0  0  0
   18.7832  132.7361   -1.9854 C   0  0  0  0  0  0  0  0  0  0  0  0
   18.2714  132.0508   -0.8886 C   0  0  0  0  0  0  0  0  0  0  0  0
   19.1096  131.6512    0.1461 C   0  0  0  0  0  0  0  0  0  0  0  0
   20.4701  131.9371    0.0889 C   0  0  0  0  0  0  0  0  0  0  0  0
   20.9914  132.6220   -1.0036 C   0  0  0  0  0  0  0  0  0  0  0  0
   21.6852  135.9196   -4.1112 C   0  0  0  0  0  0  0  0  0  0  0  0
   22.8607  135.5735   -4.4088 O   0  0  0  0  0  0  0  0  0  0  0  0
   21.1169  137.0680   -4.7666 N   0  0  0  0  0  0  0  0  0  0  0  0
   19.9028  137.0817   -5.6005 C   0  0  0  0  0  0  0  0  0  0  0  0
   18.6114  137.0417   -4.7500 C   0  0  0  0  0  0  0  0  0  0  0  0
   17.3890  136.4544   -5.4692 C   0  0  0  0  0  0  0  0  0  0  0  0
   15.8908  137.3074   -5.0032 S   0  0  0  0  0  0  0  0  0  0  0  0
   15.5895  137.1297   -3.2579 C   0  0  0  0  0  0  0  0  0  0  0  0
   14.7268  136.7477   -5.7716 O   0  0  0  0  0  0  0  0  0  0  0  0
   16.0400  138.7668   -5.3285 O   0  0  0  0  0  0  0  0  0  0  0  0
   19.9058  138.1618   -6.6529 C   0  0  0  0  0  0  0  0  0  0  0  0
   19.7225  139.3605   -6.3128 O   0  0  0  0  0  0  0  0  0  0  0  0
   20.1422  137.8692   -7.9904 O   0  0  0  0  0  0  0  0  0  0  0  0
   22.5943  135.7992    1.1932 N   0  0  0  0  0  0  0  0  0  0  0  0
   21.4295  135.7169    2.0964 C   0  0  0  0  0  0  0  0  0  0  0  0
   21.3256  134.3423    2.8055 C   0  0  0  0  0  0  0  0  0  0  0  0
   22.6131  133.9904    3.4209 N   0  0  0  0  0  0  0  0  0  0  0  0
   20.1810  134.2652    3.8433 C   0  0  0  0  0  0  0  0  0  0  0  0
   18.9879  132.9879    3.4735 S   0  0  0  0  0  0  0  0  0  0  0  0
  1  2  1  0
  2  3  1  0
  3  4  1  0
  3  5  1  0
  5  6  1  0
  6  7  1  0
  7  8  1  0
  8  9  1  0
  9 10  1  0
 10 11  2  0
 11 12  1  0
 12 13  2  0
 13 14  1  0
 14 15  2  0
  8 16  1  0
 16 17  2  0
 16 18  1  0
 18 19  1  0
 19 20  1  0
 20 21  1  0
 21 22  1  0
 22 23  1  0
 22 24  2  0
 22 25  2  0
 19 26  1  0
 26 27  2  0
 26 28  1  0
  5 29  1  0
 29 30  1  0
 30 31  1  0
 31 32  1  0
 31 33  1  0
 33 34  1  0
 15 10  1  0
M  CHG  4  28  -1  29   1  32   1  34  -1
M  END
>  <BIOSOLVEIT.HYDE_ESTIMATED_AFFINITY_LOWER_BOUNDARY [nM]>  (1) 
52514.878247

>  <BIOSOLVEIT.HYDE_ESTIMATED_AFFINITY_UPPER_BOUNDARY [nM]>  (1) 
5217663.646363

>  <BIOSOLVEIT.HYDE_LIGAND_EFFICIENCY range: ++, +, 0, -, -->  (1) 
--

>  <BIOSOLVEIT.HYDE_LIGAND_LIPOPHILIC_EFFICIENCY range: ++, +, 0, -, -->  (1) 
+

>  <BIOSOLVEIT.INTER_CLASH range: red, yellow, green>  (1) 
green

>  <BIOSOLVEIT.INTRA_CLASH range: red, yellow, green>  (1) 
green

>  <BIOSOLVEIT.LOGP>  (1) 
-1.9302

>  <BIOSOLVEIT.MOLECULAR WEIGHT>  (1) 
517.706

>  <BIOSOLVEIT.MOLECULE_CHECKSUM>  (1) 
LTE4LjcyODc7MC41NTA4NDM=

>  <BIOSOLVEIT.TORSION_QUALITY range: red, yellow, green, not rotatable>  (1) 
red

>  <BIOSOLVEIT.TPSA>  (1) 
156.85

$$$$
1SA4_JAN_2
     RDKit          3D

 34 38  0  0  0  0  0  0  0  0999 V2000
   20.0502  137.7834   -4.8374 C   0  0  0  0  0  0  0  0  0  0  0  0
   21.0271  136.7865   -4.3748 N   0  0  0  0  0  0  0  0  0  0  0  0
   21.5898  135.8135   -5.1481 C   0  0  0  0  0  0  0  0  0  0  0  0
   22.4103  135.1217   -4.3886 N   0  0  0  0  0  0  0  0  0  0  0  0
   22.3846  135.6394   -3.1244 C   0  0  0  0  0  0  0  0  0  0  0  0
   21.5140  136.6897   -3.1072 C   0  0  0  0  0  0  0  0  0  0  0  0
   21.1635  137.5826   -1.8994 C   0  0  0  0  0  0  0  0  0  0  0  0
   22.3661  138.4137   -1.6558 N   0  0  0  0  0  0  0  0  0  0  0  0
   19.9130  138.4369   -2.1942 C   0  0  0  0  0  0  0  0  0  0  0  0
   20.0695  139.7729   -2.5504 C   0  0  0  0  0  0  0  0  0  0  0  0
   18.9523  140.5564   -2.8203 C   0  0  0  0  0  0  0  0  0  0  0  0
   17.6870  139.9871   -2.7280 C   0  0  0  0  0  0  0  0  0  0  0  0
   16.2471  140.9762   -3.0699 Cl  0  0  0  0  0  0  0  0  0  0  0  0
   17.5286  138.6521   -2.3724 C   0  0  0  0  0  0  0  0  0  0  0  0
   18.6465  137.8695   -2.1029 C   0  0  0  0  0  0  0  0  0  0  0  0
   20.8418  136.7602   -0.6689 C   0  0  0  0  0  0  0  0  0  0  0  0
   21.1502  137.2584    0.5895 C   0  0  0  0  0  0  0  0  0  0  0  0
   20.8351  136.4674    1.6863 C   0  0  0  0  0  0  0  0  0  0  0  0
   20.2332  135.2226    1.5315 C   0  0  0  0  0  0  0  0  0  0  0  0
   19.9393  134.7567    0.2577 C   0  0  0  0  0  0  0  0  0  0  0  0
   20.2425  135.5246   -0.8607 C   0  0  0  0  0  0  0  0  0  0  0  0
   19.3169  133.4533    0.0969 C   0  0  0  0  0  0  0  0  0  0  0  0
   18.9987  132.9226   -1.2147 C   0  0  0  0  0  0  0  0  0  0  0  0
   20.0211  132.7215   -2.1360 C   0  0  0  0  0  0  0  0  0  0  0  0
   19.7072  132.2121   -3.3921 C   0  0  0  0  0  0  0  0  0  0  0  0
   18.3936  131.9054   -3.7309 C   0  0  0  0  0  0  0  0  0  0  0  0
   17.3873  132.1146   -2.7936 C   0  0  0  0  0  0  0  0  0  0  0  0
   15.6997  131.7295   -3.2082 Cl  0  0  0  0  0  0  0  0  0  0  0  0
   17.6780  132.6236   -1.5321 C   0  0  0  0  0  0  0  0  0  0  0  0
   19.0122  132.6861    1.1278 C   0  0  0  0  0  0  0  0  0  0  0  0
   19.3081  133.1581    2.4668 C   0  0  0  0  0  0  0  0  0  0  0  0
   19.0258  132.4496    3.4197 O   0  0  0  0  0  0  0  0  0  0  0  0
   19.9100  134.4134    2.6284 N   0  0  0  0  0  0  0  0  0  0  0  0
   20.1926  134.8435    4.0081 C   0  0  0  0  0  0  0  0  0  0  0  0
  1  2  1  0
  2  3  1  0
  3  4  2  0
  4  5  1  0
  5  6  2  0
  6  7  1  0
  7  8  1  0
  7  9  1  0
  9 10  2  0
 10 11  1  0
 11 12  2  0
 12 13  1  0
 12 14  1  0
 14 15  2  0
  7 16  1  0
 16 17  2  0
 17 18  1  0
 18 19  2  0
 19 20  1  0
 20 21  2  0
 20 22  1  0
 22 23  1  0
 23 24  2  0
 24 25  1  0
 25 26  2  0
 26 27  1  0
 27 28  1  0
 27 29  2  0
 22 30  2  0
 30 31  1  0
 31 32  2  0
 31 33  1  0
 33 34  1  0
  6  2  1  0
 15  9  1  0
 21 16  1  0
 29 23  1  0
 33 19  1  0
M  CHG  1   8   1
M  END
>  <BIOSOLVEIT.HYDE_ESTIMATED_AFFINITY_LOWER_BOUNDARY [nM]>  (2) 
17.116811

>  <BIOSOLVEIT.HYDE_ESTIMATED_AFFINITY_UPPER_BOUNDARY [nM]>  (2) 
1700.656368

>  <BIOSOLVEIT.HYDE_LIGAND_EFFICIENCY range: ++, +, 0, -, -->  (2) 
-

>  <BIOSOLVEIT.HYDE_LIGAND_LIPOPHILIC_EFFICIENCY range: ++, +, 0, -, -->  (2) 
-

>  <BIOSOLVEIT.INTER_CLASH range: red, yellow, green>  (2) 
green

>  <BIOSOLVEIT.INTRA_CLASH range: red, yellow, green>  (2) 
red

>  <BIOSOLVEIT.LOGP>  (2) 
4.6688

>  <BIOSOLVEIT.MOLECULAR WEIGHT>  (2) 
490.412

>  <BIOSOLVEIT.MOLECULE_CHECKSUM>  (2) 
LTM4LjYzMTc7MS4xMzYyMw==

>  <BIOSOLVEIT.TORSION_QUALITY range: red, yellow, green, not rotatable>  (2) 
yellow

>  <BIOSOLVEIT.TPSA>  (2) 
65.77

$$$$
1MZC_BNE_2
     RDKit          3D

 35 38  0  0  0  0  0  0  0  0999 V2000
   14.7821  136.0662   -1.8733 C   0  0  0  0  0  0  0  0  0  0  0  0
   14.5060  136.5350   -3.3099 C   0  0  0  0  0  0  0  0  0  0  0  0
   14.9636  135.5740   -4.3908 C   0  0  0  0  0  0  0  0  0  0  0  0
   14.6619  134.1672   -3.9000 C   0  0  0  0  0  0  0  0  0  0  0  0
   13.3696  133.6608   -3.9939 C   0  0  0  0  0  0  0  0  0  0  0  0
   13.1164  132.3709   -3.5382 C   0  0  0  0  0  0  0  0  0  0  0  0
   14.1316  131.5906   -2.9952 C   0  0  0  0  0  0  0  0  0  0  0  0
   15.4166  132.1165   -2.9105 C   0  0  0  0  0  0  0  0  0  0  0  0
   16.4078  131.3653   -2.3841 O   0  0  0  0  0  0  0  0  0  0  0  0
   17.7735  131.6944   -2.4035 C   0  0  0  0  0  0  0  0  0  0  0  0
   18.4411  131.8452   -1.1927 C   0  0  0  0  0  0  0  0  0  0  0  0
   19.7932  132.1712   -1.2042 C   0  0  0  0  0  0  0  0  0  0  0  0
   20.5329  132.3388    0.1134 C   0  0  0  0  0  0  0  0  0  0  0  0
   21.0138  130.9312    0.5453 C   0  0  0  0  0  0  0  0  0  0  0  0
   21.7181  133.2117   -0.0085 N   0  0  0  0  0  0  0  0  0  0  0  0
   19.5971  132.9434    1.1696 C   0  0  0  0  0  0  0  0  0  0  0  0
   19.3163  132.4036    2.3903 C   0  0  0  0  0  0  0  0  0  0  0  0
   18.4498  133.2539    3.0108 N   0  0  0  0  0  0  0  0  0  0  0  0
   18.2091  134.2687    2.2084 C   0  0  0  0  0  0  0  0  0  0  0  0
   18.9123  134.1119    1.0546 N   0  0  0  0  0  0  0  0  0  0  0  0
   18.9240  135.0235   -0.0993 C   0  0  0  0  0  0  0  0  0  0  0  0
   20.4778  132.3464   -2.4025 C   0  0  0  0  0  0  0  0  0  0  0  0
   19.7999  132.1930   -3.6074 C   0  0  0  0  0  0  0  0  0  0  0  0
   18.4476  131.8668   -3.6080 C   0  0  0  0  0  0  0  0  0  0  0  0
   17.7067  131.6990   -4.9246 C   0  0  0  0  0  0  0  0  0  0  0  0
   17.1420  131.5712   -5.9266 N   0  0  0  0  0  0  0  0  0  0  0  0
   15.6919  133.4037   -3.3602 C   0  0  0  0  0  0  0  0  0  0  0  0
   14.1373  135.8504   -5.6520 C   0  0  0  0  0  0  0  0  0  0  0  0
   14.1911  134.8456   -6.8035 C   0  0  0  0  0  0  0  0  0  0  0  0
   15.5464  134.1935   -7.0667 C   0  0  0  0  0  0  0  0  0  0  0  0
   16.7647  135.1170   -7.0316 C   0  0  0  0  0  0  0  0  0  0  0  0
   17.2406  135.5470   -5.6945 N   0  0  0  0  0  0  0  0  0  0  0  0
   18.6836  135.8065   -5.5686 C   0  0  0  0  0  0  0  0  0  0  0  0
   16.4760  135.7408   -4.5243 C   0  0  0  0  0  0  0  0  0  0  0  0
   17.0843  136.0596   -3.5119 O   0  0  0  0  0  0  0  0  0  0  0  0
  1  2  1  0
  2  3  1  0
  3  4  1  0
  4  5  2  0
  5  6  1  0
  6  7  2  0
  7  8  1  0
  8  9  1  0
  9 10  1  0
 10 11  2  0
 11 12  1  0
 12 13  1  0
 13 14  1  0
 13 15  1  0
 13 16  1  0
 16 17  2  0
 17 18  1  0
 18 19  2  0
 19 20  1  0
 20 21  1  0
 12 22  2  0
 22 23  1  0
 23 24  2  0
 24 25  1  0
 25 26  3  0
  8 27  2  0
  3 28  1  0
 28 29  1  0
 29 30  1  0
 30 31  1  0
 31 32  1  0
 32 33  1  0
 32 34  1  0
 34 35  2  0
 34  3  1  0
 27  4  1  0
 24 10  1  0
 20 16  1  0
M  CHG  1  15   1
M  END
>  <BIOSOLVEIT.HYDE_ESTIMATED_AFFINITY_LOWER_BOUNDARY [nM]>  (3) 
0.008266

>  <BIOSOLVEIT.HYDE_ESTIMATED_AFFINITY_UPPER_BOUNDARY [nM]>  (3) 
0.821266

>  <BIOSOLVEIT.HYDE_LIGAND_EFFICIENCY range: ++, +, 0, -, -->  (3) 
0

>  <BIOSOLVEIT.HYDE_LIGAND_LIPOPHILIC_EFFICIENCY range: ++, +, 0, -, -->  (3) 
+

>  <BIOSOLVEIT.INTER_CLASH range: red, yellow, green>  (3) 
yellow

>  <BIOSOLVEIT.INTRA_CLASH range: red, yellow, green>  (3) 
yellow

>  <BIOSOLVEIT.LOGP>  (3) 
3.87958

>  <BIOSOLVEIT.MOLECULAR WEIGHT>  (3) 
472.61

>  <BIOSOLVEIT.MOLECULE_CHECKSUM>  (3) 
LTU3LjU2MDI7MS42NDQ1OA==

>  <BIOSOLVEIT.TORSION_QUALITY range: red, yellow, green, not rotatable>  (3) 
green

>  <BIOSOLVEIT.TPSA>  (3) 
98.79

$$$$
1LD7_U66_3
     RDKit          3D

 34 39  0  0  0  0  0  0  0  0999 V2000
   16.2969  138.5855   -1.9176 N   0  0  0  0  0  0  0  0  0  0  0  0
   16.7002  138.6940   -0.8382 C   0  0  0  0  0  0  0  0  0  0  0  0
   17.2104  138.8293    0.5414 C   0  0  0  0  0  0  0  0  0  0  0  0
   16.2674  138.1004    1.5131 C   0  0  0  0  0  0  0  0  0  0  0  0
   16.3424  136.6001    1.3515 C   0  0  0  0  0  0  0  0  0  0  0  0
   17.4460  135.9702    0.8892 C   0  0  0  0  0  0  0  0  0  0  0  0
   18.6678  136.7354    0.4206 C   0  0  0  0  0  0  0  0  0  0  0  0
   18.6314  138.2460    0.7142 C   0  0  0  0  0  0  0  0  0  0  0  0
   19.6405  138.9649   -0.0181 O   0  0  0  0  0  0  0  0  0  0  0  0
   19.6710  139.1117   -1.4113 C   0  0  0  0  0  0  0  0  0  0  0  0
   19.1674  140.2814   -1.9843 C   0  0  0  0  0  0  0  0  0  0  0  0
   19.1332  140.4294   -3.3693 C   0  0  0  0  0  0  0  0  0  0  0  0
   19.6049  139.4048   -4.2027 C   0  0  0  0  0  0  0  0  0  0  0  0
   19.5367  139.5551   -5.5936 C   0  0  0  0  0  0  0  0  0  0  0  0
   19.9937  138.5425   -6.4315 C   0  0  0  0  0  0  0  0  0  0  0  0
   20.5242  137.3713   -5.8947 C   0  0  0  0  0  0  0  0  0  0  0  0
   20.6169  137.1892   -4.5035 C   0  0  0  0  0  0  0  0  0  0  0  0
   20.1532  138.2199   -3.6384 C   0  0  0  0  0  0  0  0  0  0  0  0
   20.2233  138.1145   -2.2322 C   0  0  0  0  0  0  0  0  0  0  0  0
   21.1586  135.9505   -3.9998 N   0  0  0  0  0  0  0  0  0  0  0  0
   22.3815  135.3184   -4.4791 C   0  0  0  0  0  0  0  0  0  0  0  0
   22.2759  133.8388   -4.0641 C   0  0  0  0  0  0  0  0  0  0  0  0
   21.2539  133.7879   -2.9107 C   0  0  0  0  0  0  0  0  0  0  0  0
   21.9631  133.8211   -1.6102 N   0  0  0  0  0  0  0  0  0  0  0  0
   21.1054  134.0608   -0.4374 C   0  0  0  0  0  0  0  0  0  0  0  0
   20.1010  132.9287   -0.1736 C   0  0  0  0  0  0  0  0  0  0  0  0
   19.4897  133.0853    1.1964 C   0  0  0  0  0  0  0  0  0  0  0  0
   20.0518  132.6134    2.3638 C   0  0  0  0  0  0  0  0  0  0  0  0
   19.3006  132.9996    3.4141 N   0  0  0  0  0  0  0  0  0  0  0  0
   18.2947  133.7113    2.8647 C   0  0  0  0  0  0  0  0  0  0  0  0
   18.3856  133.7945    1.5215 N   0  0  0  0  0  0  0  0  0  0  0  0
   17.4237  134.4754    0.6519 C   0  0  0  0  0  0  0  0  0  0  0  0
   20.4691  135.0268   -3.1746 C   0  0  0  0  0  0  0  0  0  0  0  0
   19.2744  135.1905   -2.8091 O   0  0  0  0  0  0  0  0  0  0  0  0
  1  2  3  0
  2  3  1  0
  3  4  1  0
  4  5  1  0
  5  6  2  0
  6  7  1  0
  7  8  1  0
  8  9  1  0
  9 10  1  0
 10 11  2  0
 11 12  1  0
 12 13  2  0
 13 14  1  0
 14 15  2  0
 15 16  1  0
 16 17  2  0
 17 18  1  0
 18 19  2  0
 17 20  1  0
 20 21  1  0
 21 22  1  0
 22 23  1  0
 23 24  1  0
 24 25  1  0
 25 26  1  0
 26 27  1  0
 27 28  2  0
 28 29  1  0
 29 30  2  0
 30 31  1  0
 31 32  1  0
 23 33  1  0
 33 34  2  0
  8  3  1  0
 19 10  1  0
 33 20  1  0
 32  6  1  0
 18 13  1  0
 31 27  1  0
M  CHG  1  24   1
M  END
>  <BIOSOLVEIT.HYDE_ESTIMATED_AFFINITY_LOWER_BOUNDARY [nM]>  (4) 
47301691707.277077

>  <BIOSOLVEIT.HYDE_ESTIMATED_AFFINITY_UPPER_BOUNDARY [nM]>  (4) 
4699702740852.741211

>  <BIOSOLVEIT.HYDE_LIGAND_EFFICIENCY range: ++, +, 0, -, -->  (4) 
--

>  <BIOSOLVEIT.HYDE_LIGAND_LIPOPHILIC_EFFICIENCY range: ++, +, 0, -, -->  (4) 
--

>  <BIOSOLVEIT.INTER_CLASH range: red, yellow, green>  (4) 
yellow

>  <BIOSOLVEIT.INTRA_CLASH range: red, yellow, green>  (4) 
green

>  <BIOSOLVEIT.LOGP>  (4) 
2.56868

>  <BIOSOLVEIT.MOLECULAR WEIGHT>  (4) 
454.551

>  <BIOSOLVEIT.MOLECULE_CHECKSUM>  (4) 
MTUuMjYwMjsw

>  <BIOSOLVEIT.TORSION_QUALITY range: red, yellow, green, not rotatable>  (4) 
not rotatable

>  <BIOSOLVEIT.TPSA>  (4) 
87.76

$$$$
1S63_778_3
     RDKit          3D

 29 32  0  0  0  0  0  0  0  0999 V2000
   12.1184  138.9894    1.8330 N   0  0  0  0  0  0  0  0  0  0  0  0
   13.1445  138.4996    1.6172 C   0  0  0  0  0  0  0  0  0  0  0  0
   14.4920  137.8562    1.3336 C   0  0  0  0  0  0  0  0  0  0  0  0
   15.5520  138.0802    2.2066 C   0  0  0  0  0  0  0  0  0  0  0  0
   16.7906  137.4975    1.9603 C   0  0  0  0  0  0  0  0  0  0  0  0
   16.9511  136.6944    0.8358 C   0  0  0  0  0  0  0  0  0  0  0  0
   18.2873  136.0587    0.5564 C   0  0  0  0  0  0  0  0  0  0  0  0
   18.7234  135.2483    1.7033 N   0  0  0  0  0  0  0  0  0  0  0  0
   17.8986  134.5535    2.5390 C   0  0  0  0  0  0  0  0  0  0  0  0
   18.6495  133.9538    3.4366 N   0  0  0  0  0  0  0  0  0  0  0  0
   19.9591  134.2550    3.1895 C   0  0  0  0  0  0  0  0  0  0  0  0
   20.0142  135.0716    2.0979 C   0  0  0  0  0  0  0  0  0  0  0  0
   21.2519  135.6496    1.4617 C   0  0  0  0  0  0  0  0  0  0  0  0
   21.8404  134.7322    0.4781 N   0  0  0  0  0  0  0  0  0  0  0  0
   21.1865  133.4283    0.7104 C   0  0  0  0  0  0  0  0  0  0  0  0
   20.6692  132.6945   -0.5256 C   0  0  0  0  0  0  0  0  0  0  0  0
   19.8916  133.6098   -1.3717 N   0  0  0  0  0  0  0  0  0  0  0  0
   18.7163  133.1571   -1.9838 C   0  0  0  0  0  0  0  0  0  0  0  0
   17.4872  133.4379   -1.3957 C   0  0  0  0  0  0  0  0  0  0  0  0
   16.3228  132.9871   -2.0089 C   0  0  0  0  0  0  0  0  0  0  0  0
   16.3764  132.2638   -3.1954 C   0  0  0  0  0  0  0  0  0  0  0  0
   17.6160  131.9945   -3.7667 C   0  0  0  0  0  0  0  0  0  0  0  0
   17.7060  131.0708   -5.2853 Cl  0  0  0  0  0  0  0  0  0  0  0  0
   18.7927  132.4357   -3.1705 C   0  0  0  0  0  0  0  0  0  0  0  0
   20.3558  134.9216   -1.5442 C   0  0  0  0  0  0  0  0  0  0  0  0
   19.7222  135.7122   -2.2295 O   0  0  0  0  0  0  0  0  0  0  0  0
   21.6418  135.3506   -0.8523 C   0  0  0  0  0  0  0  0  0  0  0  0
   15.8938  136.4689   -0.0394 C   0  0  0  0  0  0  0  0  0  0  0  0
   14.6557  137.0527    0.2099 C   0  0  0  0  0  0  0  0  0  0  0  0
  1  2  3  0
  2  3  1  0
  3  4  2  0
  4  5  1  0
  5  6  2  0
  6  7  1  0
  7  8  1  0
  8  9  1  0
  9 10  2  0
 10 11  1  0
 11 12  2  0
 12 13  1  0
 13 14  1  0
 14 15  1  0
 15 16  1  0
 16 17  1  0
 17 18  1  0
 18 19  2  0
 19 20  1  0
 20 21  2  0
 21 22  1  0
 22 23  1  0
 22 24  2  0
 17 25  1  0
 25 26  2  0
 25 27  1  0
  6 28  1  0
 28 29  2  0
 29  3  1  0
 12  8  1  0
 27 14  1  0
 24 18  1  0
M  CHG  1  14   1
M  END
>  <BIOSOLVEIT.HYDE_ESTIMATED_AFFINITY_LOWER_BOUNDARY [nM]>  (5) 
223.195661

>  <BIOSOLVEIT.HYDE_ESTIMATED_AFFINITY_UPPER_BOUNDARY [nM]>  (5) 
22175.808551

>  <BIOSOLVEIT.HYDE_LIGAND_EFFICIENCY range: ++, +, 0, -, -->  (5) 
-

>  <BIOSOLVEIT.HYDE_LIGAND_LIPOPHILIC_EFFICIENCY range: ++, +, 0, -, -->  (5) 
0

>  <BIOSOLVEIT.INTER_CLASH range: red, yellow, green>  (5) 
green

>  <BIOSOLVEIT.INTRA_CLASH range: red, yellow, green>  (5) 
red

>  <BIOSOLVEIT.LOGP>  (5) 
1.88818

>  <BIOSOLVEIT.MOLECULAR WEIGHT>  (5) 
406.895

>  <BIOSOLVEIT.MOLECULE_CHECKSUM>  (5) 
LTMyLjI2NTg7MS4xMTI2MQ==

>  <BIOSOLVEIT.TORSION_QUALITY range: red, yellow, green, not rotatable>  (5) 
yellow

>  <BIOSOLVEIT.TPSA>  (5) 
66.36

$$$$
3E37_ED5_3
     RDKit          3D

 43 46  0  0  0  0  0  0  0  0999 V2000
   20.4846  133.5354   -0.5404 C   0  0  0  0  0  0  0  0  0  0  0  0
   21.3434  134.7388   -0.1873 C   0  0  0  0  0  0  0  0  0  0  0  0
   21.3957  135.1442    1.1425 C   0  0  0  0  0  0  0  0  0  0  0  0
   22.1742  136.2426    1.4911 C   0  0  0  0  0  0  0  0  0  0  0  0
   22.8912  136.9247    0.5137 C   0  0  0  0  0  0  0  0  0  0  0  0
   22.8399  136.5211   -0.8165 C   0  0  0  0  0  0  0  0  0  0  0  0
   22.0607  135.4222   -1.1651 C   0  0  0  0  0  0  0  0  0  0  0  0
   22.0073  134.9199   -2.8726 S   0  0  0  0  0  0  0  0  0  0  0  0
   23.2086  135.3922   -3.6424 O   0  0  0  0  0  0  0  0  0  0  0  0
   22.0095  133.4175   -2.8856 O   0  0  0  0  0  0  0  0  0  0  0  0
   20.5393  135.5021   -3.6468 N   0  0  0  0  0  0  0  0  0  0  0  0
   19.3275  134.7904   -3.1861 C   0  0  0  0  0  0  0  0  0  0  0  0
   18.6487  133.9324   -4.2706 C   0  0  0  0  0  0  0  0  0  0  0  0
   17.3048  134.4492   -4.5538 N   0  0  0  0  0  0  0  0  0  0  0  0
   17.1090  135.7464   -5.2105 C   0  0  0  0  0  0  0  0  0  0  0  0
   16.6434  135.5478   -6.6233 C   0  0  0  0  0  0  0  0  0  0  0  0
   17.4447  135.4705   -7.7244 C   0  0  0  0  0  0  0  0  0  0  0  0
   16.6262  135.2859   -8.7990 N   0  0  0  0  0  0  0  0  0  0  0  0
   15.3801  135.2517   -8.3777 C   0  0  0  0  0  0  0  0  0  0  0  0
   15.3532  135.4051   -7.0264 N   0  0  0  0  0  0  0  0  0  0  0  0
   14.1605  135.4232   -6.1665 C   0  0  0  0  0  0  0  0  0  0  0  0
   16.1949  133.7607   -4.0494 C   0  0  0  0  0  0  0  0  0  0  0  0
   15.5014  134.2857   -2.9636 C   0  0  0  0  0  0  0  0  0  0  0  0
   14.3974  133.6119   -2.4521 C   0  0  0  0  0  0  0  0  0  0  0  0
   14.0008  132.4156   -3.0395 C   0  0  0  0  0  0  0  0  0  0  0  0
   12.8592  131.7096   -2.5203 C   0  0  0  0  0  0  0  0  0  0  0  0
   11.9405  131.1428   -2.1039 N   0  0  0  0  0  0  0  0  0  0  0  0
   14.6906  131.8868   -4.1256 C   0  0  0  0  0  0  0  0  0  0  0  0
   15.7947  132.5635   -4.6341 C   0  0  0  0  0  0  0  0  0  0  0  0
   20.3993  136.9729   -3.5695 C   0  0  0  0  0  0  0  0  0  0  0  0
   19.1705  137.3791   -2.7276 C   0  0  0  0  0  0  0  0  0  0  0  0
   18.3744  138.4243   -3.5000 C   0  0  0  0  0  0  0  0  0  0  0  0
   18.0870  139.6765   -2.6832 C   0  0  0  0  0  0  0  0  0  0  0  0
   17.7322  139.3625   -1.2894 N   0  0  0  0  0  0  0  0  0  0  0  0
   16.8387  140.1562   -0.5595 C   0  0  0  0  0  0  0  0  0  0  0  0
   17.1792  141.3138   -0.1931 O   0  0  0  0  0  0  0  0  0  0  0  0
   15.5662  139.6514   -0.2451 O   0  0  0  0  0  0  0  0  0  0  0  0
   15.0577  139.3795    1.0692 C   0  0  0  0  0  0  0  0  0  0  0  0
   14.3340  140.6481    1.5461 C   0  0  0  0  0  0  0  0  0  0  0  0
   14.0487  138.2160    1.0309 C   0  0  0  0  0  0  0  0  0  0  0  0
   16.2101  139.0683    2.0432 C   0  0  0  0  0  0  0  0  0  0  0  0
   18.3091  138.1899   -0.6170 C   0  0  0  0  0  0  0  0  0  0  0  0
   19.5970  137.8428   -1.3421 C   0  0  0  0  0  0  0  0  0  0  0  0
  1  2  1  0
  2  3  2  0
  3  4  1  0
  4  5  2  0
  5  6  1  0
  6  7  2  0
  7  8  1  0
  8  9  2  0
  8 10  2  0
  8 11  1  0
 11 12  1  0
 12 13  1  0
 13 14  1  0
 14 15  1  0
 15 16  1  0
 16 17  2  0
 17 18  1  0
 18 19  2  0
 19 20  1  0
 20 21  1  0
 14 22  1  0
 22 23  2  0
 23 24  1  0
 24 25  2  0
 25 26  1  0
 26 27  3  0
 25 28  1  0
 28 29  2  0
 11 30  1  0
 30 31  1  0
 31 32  1  0
 32 33  1  0
 33 34  1  0
 34 35  1  0
 35 36  2  0
 35 37  1  0
 37 38  1  0
 38 39  1  0
 38 40  1  0
 38 41  1  0
 34 42  1  0
 42 43  1  0
  7  2  1  0
 20 16  1  0
 29 22  1  0
 43 31  1  0
M  END
>  <BIOSOLVEIT.HYDE_ESTIMATED_AFFINITY_LOWER_BOUNDARY [nM]>  (6) 
33782815.878974

>  <BIOSOLVEIT.HYDE_ESTIMATED_AFFINITY_UPPER_BOUNDARY [nM]>  (6) 
3356522497.391160

>  <BIOSOLVEIT.HYDE_LIGAND_EFFICIENCY range: ++, +, 0, -, -->  (6) 
--

>  <BIOSOLVEIT.HYDE_LIGAND_LIPOPHILIC_EFFICIENCY range: ++, +, 0, -, -->  (6) 
--

>  <BIOSOLVEIT.INTER_CLASH range: red, yellow, green>  (6) 
green

>  <BIOSOLVEIT.INTRA_CLASH range: red, yellow, green>  (6) 
yellow

>  <BIOSOLVEIT.LOGP>  (6) 
5.5954

>  <BIOSOLVEIT.MOLECULAR WEIGHT>  (6) 
606.787

>  <BIOSOLVEIT.MOLECULE_CHECKSUM>  (6) 
LTIuNjk4MjI7MC4wNjI3NDky

>  <BIOSOLVEIT.TORSION_QUALITY range: red, yellow, green, not rotatable>  (6) 
red

>  <BIOSOLVEIT.TPSA>  (6) 
111.77

$$$$
2IEJ_S48_2
     RDKit          3D

 38 42  0  0  0  0  0  0  0  0999 V2000
   20.0856  139.7217   -5.5613 C   0  0  0  0  0  0  0  0  0  0  0  0
   20.0229  138.4205   -4.9902 O   0  0  0  0  0  0  0  0  0  0  0  0
   20.2808  137.2614   -5.7265 C   0  0  0  0  0  0  0  0  0  0  0  0
   20.5925  137.3331   -6.9460 O   0  0  0  0  0  0  0  0  0  0  0  0
   20.1824  135.9283   -5.0565 C   0  0  0  0  0  0  0  0  0  0  0  0
   20.4527  136.0611   -3.6008 N   0  0  0  0  0  0  0  0  0  0  0  0
   19.2270  135.8411   -2.8139 C   0  0  0  0  0  0  0  0  0  0  0  0
   18.3568  137.0845   -2.9325 C   0  0  0  0  0  0  0  0  0  0  0  0
   17.0542  136.7552   -2.2188 C   0  0  0  0  0  0  0  0  0  0  0  0
   16.4531  137.6792   -1.3770 C   0  0  0  0  0  0  0  0  0  0  0  0
   15.2861  137.3529   -0.6931 C   0  0  0  0  0  0  0  0  0  0  0  0
   14.7035  138.3276    0.2070 C   0  0  0  0  0  0  0  0  0  0  0  0
   15.3374  139.5513    0.3935 C   0  0  0  0  0  0  0  0  0  0  0  0
   14.7731  140.4821    1.2592 C   0  0  0  0  0  0  0  0  0  0  0  0
   13.5899  140.1935    1.9298 C   0  0  0  0  0  0  0  0  0  0  0  0
   12.9627  138.9666    1.7373 C   0  0  0  0  0  0  0  0  0  0  0  0
   13.5194  138.0292    0.8736 C   0  0  0  0  0  0  0  0  0  0  0  0
   14.6983  136.1042   -0.8674 C   0  0  0  0  0  0  0  0  0  0  0  0
   15.3039  135.2001   -1.7340 C   0  0  0  0  0  0  0  0  0  0  0  0
   16.4780  135.5072   -2.4188 C   0  0  0  0  0  0  0  0  0  0  0  0
   17.1024  134.6045   -3.2966 N   0  0  0  0  0  0  0  0  0  0  0  0
   16.3385  133.7007   -4.1700 C   0  0  0  0  0  0  0  0  0  0  0  0
   15.7849  132.5103   -3.4245 C   0  0  0  0  0  0  0  0  0  0  0  0
   16.5088  131.6318   -2.6731 C   0  0  0  0  0  0  0  0  0  0  0  0
   15.6297  130.7156   -2.1765 N   0  0  0  0  0  0  0  0  0  0  0  0
   14.4221  131.0171   -2.6034 C   0  0  0  0  0  0  0  0  0  0  0  0
   14.4798  132.1335   -3.3782 N   0  0  0  0  0  0  0  0  0  0  0  0
   13.3519  132.8002   -4.0459 C   0  0  0  0  0  0  0  0  0  0  0  0
   18.5735  134.5594   -3.3186 C   0  0  0  0  0  0  0  0  0  0  0  0
   21.8068  135.0288   -3.1597 S   0  0  0  0  0  0  0  0  0  0  0  0
   22.2814  134.2436   -4.3499 O   0  0  0  0  0  0  0  0  0  0  0  0
   22.9420  135.8636   -2.6343 O   0  0  0  0  0  0  0  0  0  0  0  0
   21.3367  133.8590   -1.9381 C   0  0  0  0  0  0  0  0  0  0  0  0
   21.5758  133.9786   -0.6033 C   0  0  0  0  0  0  0  0  0  0  0  0
   21.0486  132.8611   -0.0368 N   0  0  0  0  0  0  0  0  0  0  0  0
   21.0588  132.5354    1.3964 C   0  0  0  0  0  0  0  0  0  0  0  0
   20.5066  132.0947   -1.0223 C   0  0  0  0  0  0  0  0  0  0  0  0
   20.6755  132.6913   -2.1791 N   0  0  0  0  0  0  0  0  0  0  0  0
  1  2  1  0
  2  3  1  0
  3  4  2  0
  3  5  1  0
  5  6  1  0
  6  7  1  0
  7  8  1  0
  8  9  1  0
  9 10  2  0
 10 11  1  0
 11 12  1  0
 12 13  2  0
 13 14  1  0
 14 15  2  0
 15 16  1  0
 16 17  2  0
 11 18  2  0
 18 19  1  0
 19 20  2  0
 20 21  1  0
 21 22  1  0
 22 23  1  0
 23 24  2  0
 24 25  1  0
 25 26  2  0
 26 27  1  0
 27 28  1  0
 21 29  1  0
  6 30  1  0
 30 31  2  0
 30 32  2  0
 30 33  1  0
 33 34  2  0
 34 35  1  0
 35 36  1  0
 35 37  1  0
 37 38  2  0
 29  7  1  0
 38 33  1  0
 20  9  1  0
 27 23  1  0
 17 12  1  0
M  END
>  <BIOSOLVEIT.HYDE_ESTIMATED_AFFINITY_LOWER_BOUNDARY [nM]>  (7) 
89407.614318

>  <BIOSOLVEIT.HYDE_ESTIMATED_AFFINITY_UPPER_BOUNDARY [nM]>  (7) 
8883175.102100

>  <BIOSOLVEIT.HYDE_LIGAND_EFFICIENCY range: ++, +, 0, -, -->  (7) 
--

>  <BIOSOLVEIT.HYDE_LIGAND_LIPOPHILIC_EFFICIENCY range: ++, +, 0, -, -->  (7) 
--

>  <BIOSOLVEIT.INTER_CLASH range: red, yellow, green>  (7) 
green

>  <BIOSOLVEIT.INTRA_CLASH range: red, yellow, green>  (7) 
green

>  <BIOSOLVEIT.LOGP>  (7) 
3.2664

>  <BIOSOLVEIT.MOLECULAR WEIGHT>  (7) 
534.637

>  <BIOSOLVEIT.MOLECULE_CHECKSUM>  (7) 
LTE3LjQwOTY7MC40NTgxNDc=

>  <BIOSOLVEIT.TORSION_QUALITY range: red, yellow, green, not rotatable>  (7) 
yellow

>  <BIOSOLVEIT.TPSA>  (7) 
102.56

$$$$
