1JCQ_739_1
     RDKit          3D

 34 34  0  0  0  0  0  0  0  0999 V2000
   19.7685  132.7850   -2.0835 C   0  0  0  0  0  0  0  0  0  0  0  0
   20.1428  134.2589   -2.2578 C   0  0  0  0  0  0  0  0  0  0  0  0
   20.7124  134.5813   -3.6654 C   0  0  0  0  0  0  0  0  0  0  0  0
   22.0188  133.7953   -3.9053 C   0  0  0  0  0  0  0  0  0  0  0  0
   20.8466  136.1240   -3.9321 C   0  0  0  0  0  0  0  0  0  0  0  0
   21.4594  136.4229   -5.3216 C   0  0  0  0  0  0  0  0  0  0  0  0
   20.5795  137.2149   -6.0928 O   0  0  0  0  0  0  0  0  0  0  0  0
   19.2751  136.6615   -6.1188 C   0  0  0  0  0  0  0  0  0  0  0  0
   18.3742  137.4387   -5.1420 C   0  0  0  0  0  0  0  0  0  0  0  0
   18.9789  138.7672   -4.7618 C   0  0  0  0  0  0  0  0  0  0  0  0
   19.2292  139.7127   -5.7504 C   0  0  0  0  0  0  0  0  0  0  0  0
   19.7875  140.9354   -5.3932 C   0  0  0  0  0  0  0  0  0  0  0  0
   20.0915  141.2096   -4.0645 C   0  0  0  0  0  0  0  0  0  0  0  0
   19.8379  140.2574   -3.0822 C   0  0  0  0  0  0  0  0  0  0  0  0
   19.2799  139.0316   -3.4296 C   0  0  0  0  0  0  0  0  0  0  0  0
   18.7386  136.7704   -7.5212 C   0  0  0  0  0  0  0  0  0  0  0  0
   19.0446  137.7750   -8.2190 O   0  0  0  0  0  0  0  0  0  0  0  0
   17.9158  135.7244   -8.0701 N   0  0  0  0  0  0  0  0  0  0  0  0
   17.3778  135.7276   -9.4352 C   0  0  0  0  0  0  0  0  0  0  0  0
   15.8506  135.4937   -9.4353 C   0  0  0  0  0  0  0  0  0  0  0  0
   15.4539  134.0568   -9.0569 C   0  0  0  0  0  0  0  0  0  0  0  0
   15.3261  133.8081   -7.2882 S   0  0  0  0  0  0  0  0  0  0  0  0
   14.6683  135.2829   -6.5432 C   0  0  0  0  0  0  0  0  0  0  0  0
   14.3993  132.6618   -6.9957 O   0  0  0  0  0  0  0  0  0  0  0  0
   16.6793  133.5213   -6.7001 O   0  0  0  0  0  0  0  0  0  0  0  0
   18.1196  134.7377  -10.2952 C   0  0  0  0  0  0  0  0  0  0  0  0
   17.8447  133.5083  -10.2602 O   0  0  0  0  0  0  0  0  0  0  0  0
   19.1549  135.1809  -11.1083 O   0  0  0  0  0  0  0  0  0  0  0  0
   21.5695  136.8579   -2.8485 N   0  0  0  0  0  0  0  0  0  0  0  0
   22.6828  136.0870   -2.2588 C   0  0  0  0  0  0  0  0  0  0  0  0
   23.0520  136.5339   -0.8154 C   0  0  0  0  0  0  0  0  0  0  0  0
   22.5742  135.5741    0.1931 N   0  0  0  0  0  0  0  0  0  0  0  0
   22.5200  137.9542   -0.5227 C   0  0  0  0  0  0  0  0  0  0  0  0
   23.5034  138.8277    0.6866 S   0  0  0  0  0  0  0  0  0  0  0  0
  1  2  1  0
  2  3  1  0
  3  4  1  0
  3  5  1  0
  5  6  1  0
  6  7  1  0
  7  8  1  0
  8  9  1  0
  9 10  1  0
 10 11  2  0
 11 12  1  0
 12 13  2  0
 13 14  1  0
 14 15  2  0
  8 16  1  0
 16 17  2  0
 16 18  1  0
 18 19  1  0
 19 20  1  0
 20 21  1  0
 21 22  1  0
 22 23  1  0
 22 24  2  0
 22 25  2  0
 19 26  1  0
 26 27  2  0
 26 28  1  0
  5 29  1  0
 29 30  1  0
 30 31  1  0
 31 32  1  0
 31 33  1  0
 33 34  1  0
 15 10  1  0
M  CHG  3  28  -1  29   1  32   1
M  END
>  <BIOSOLVEIT.HYDE_ESTIMATED_AFFINITY_LOWER_BOUNDARY [nM]>  (1) 
1635491561.217059

>  <BIOSOLVEIT.HYDE_ESTIMATED_AFFINITY_UPPER_BOUNDARY [nM]>  (1) 
162495756398.303314

>  <BIOSOLVEIT.HYDE_LIGAND_EFFICIENCY range: ++, +, 0, -, -->  (1) 
--

>  <BIOSOLVEIT.HYDE_LIGAND_LIPOPHILIC_EFFICIENCY range: ++, +, 0, -, -->  (1) 
--

>  <BIOSOLVEIT.INTER_CLASH range: red, yellow, green>  (1) 
yellow

>  <BIOSOLVEIT.INTRA_CLASH range: red, yellow, green>  (1) 
red

>  <BIOSOLVEIT.LOGP>  (1) 
-1.1671

>  <BIOSOLVEIT.MOLECULAR WEIGHT>  (1) 
518.714

>  <BIOSOLVEIT.MOLECULE_CHECKSUM>  (1) 
Ni45MTk1MTsw

>  <BIOSOLVEIT.TORSION_QUALITY range: red, yellow, green, not rotatable>  (1) 
red

>  <BIOSOLVEIT.TPSA>  (1) 
156.85

$$$$
1SA4_JAN_1
     RDKit          3D

 34 38  0  0  0  0  0  0  0  0999 V2000
   16.5238  135.7877    0.6637 C   0  0  0  0  0  0  0  0  0  0  0  0
   17.4215  134.8771   -0.0624 N   0  0  0  0  0  0  0  0  0  0  0  0
   18.5580  134.3176    0.4444 C   0  0  0  0  0  0  0  0  0  0  0  0
   19.0879  133.5650   -0.4947 N   0  0  0  0  0  0  0  0  0  0  0  0
   18.3022  133.6321   -1.6104 C   0  0  0  0  0  0  0  0  0  0  0  0
   17.2491  134.4583   -1.3462 C   0  0  0  0  0  0  0  0  0  0  0  0
   16.1023  134.8304   -2.3041 C   0  0  0  0  0  0  0  0  0  0  0  0
   15.2803  135.8876   -1.6622 N   0  0  0  0  0  0  0  0  0  0  0  0
   15.2323  133.5780   -2.5641 C   0  0  0  0  0  0  0  0  0  0  0  0
   15.8121  132.3161   -2.4764 C   0  0  0  0  0  0  0  0  0  0  0  0
   15.0433  131.1798   -2.7062 C   0  0  0  0  0  0  0  0  0  0  0  0
   13.6973  131.3251   -3.0232 C   0  0  0  0  0  0  0  0  0  0  0  0
   12.6997  129.8810   -3.3205 Cl  0  0  0  0  0  0  0  0  0  0  0  0
   13.1161  132.5853   -3.1109 C   0  0  0  0  0  0  0  0  0  0  0  0
   13.8858  133.7209   -2.8809 C   0  0  0  0  0  0  0  0  0  0  0  0
   16.6373  135.3536   -3.6210 C   0  0  0  0  0  0  0  0  0  0  0  0
   15.8056  135.3960   -4.7315 C   0  0  0  0  0  0  0  0  0  0  0  0
   16.3422  135.8843   -5.9154 C   0  0  0  0  0  0  0  0  0  0  0  0
   17.6631  136.3150   -5.9874 C   0  0  0  0  0  0  0  0  0  0  0  0
   18.4657  136.2578   -4.8566 C   0  0  0  0  0  0  0  0  0  0  0  0
   17.9583  135.7737   -3.6563 C   0  0  0  0  0  0  0  0  0  0  0  0
   19.8473  136.7014   -4.9348 C   0  0  0  0  0  0  0  0  0  0  0  0
   20.7256  136.6529   -3.7803 C   0  0  0  0  0  0  0  0  0  0  0  0
   20.5057  137.5241   -2.7185 C   0  0  0  0  0  0  0  0  0  0  0  0
   21.3523  137.4710   -1.6157 C   0  0  0  0  0  0  0  0  0  0  0  0
   22.4055  136.5639   -1.5661 C   0  0  0  0  0  0  0  0  0  0  0  0
   22.6063  135.7023   -2.6396 C   0  0  0  0  0  0  0  0  0  0  0  0
   23.9493  134.5350   -2.5962 Cl  0  0  0  0  0  0  0  0  0  0  0  0
   21.7728  135.7382   -3.7527 C   0  0  0  0  0  0  0  0  0  0  0  0
   20.3758  137.1666   -6.0522 C   0  0  0  0  0  0  0  0  0  0  0  0
   19.5511  137.2376   -7.2431 C   0  0  0  0  0  0  0  0  0  0  0  0
   20.0392  137.6681   -8.2757 O   0  0  0  0  0  0  0  0  0  0  0  0
   18.2184  136.8095   -7.1746 N   0  0  0  0  0  0  0  0  0  0  0  0
   17.4260  136.8990   -8.4126 C   0  0  0  0  0  0  0  0  0  0  0  0
  1  2  1  0
  2  3  1  0
  3  4  2  0
  4  5  1  0
  5  6  2  0
  6  7  1  0
  7  8  1  0
  7  9  1  0
  9 10  2  0
 10 11  1  0
 11 12  2  0
 12 13  1  0
 12 14  1  0
 14 15  2  0
  7 16  1  0
 16 17  2  0
 17 18  1  0
 18 19  2  0
 19 20  1  0
 20 21  2  0
 20 22  1  0
 22 23  1  0
 23 24  2  0
 24 25  1  0
 25 26  2  0
 26 27  1  0
 27 28  1  0
 27 29  2  0
 22 30  2  0
 30 31  1  0
 31 32  2  0
 31 33  1  0
 33 34  1  0
  6  2  1  0
 15  9  1  0
 21 16  1  0
 29 23  1  0
 33 19  1  0
M  END
>  <BIOSOLVEIT.HYDE_ESTIMATED_AFFINITY_LOWER_BOUNDARY [nM]>  (2) 
51735.324602

>  <BIOSOLVEIT.HYDE_ESTIMATED_AFFINITY_UPPER_BOUNDARY [nM]>  (2) 
5140210.382684

>  <BIOSOLVEIT.HYDE_LIGAND_EFFICIENCY range: ++, +, 0, -, -->  (2) 
--

>  <BIOSOLVEIT.HYDE_LIGAND_LIPOPHILIC_EFFICIENCY range: ++, +, 0, -, -->  (2) 
--

>  <BIOSOLVEIT.INTER_CLASH range: red, yellow, green>  (2) 
green

>  <BIOSOLVEIT.INTRA_CLASH range: red, yellow, green>  (2) 
red

>  <BIOSOLVEIT.LOGP>  (2) 
5.3856

>  <BIOSOLVEIT.MOLECULAR WEIGHT>  (2) 
489.404

>  <BIOSOLVEIT.MOLECULE_CHECKSUM>  (2) 
LTE4Ljc2NTc7MC41NTE5MzQ=

>  <BIOSOLVEIT.TORSION_QUALITY range: red, yellow, green, not rotatable>  (2) 
green

>  <BIOSOLVEIT.TPSA>  (2) 
64.15

$$$$
1MZC_BNE_1
     RDKit          3D

 35 38  0  0  0  0  0  0  0  0999 V2000
   14.5366  137.1476   -1.2521 C   0  0  0  0  0  0  0  0  0  0  0  0
   14.2497  137.0424   -2.7594 C   0  0  0  0  0  0  0  0  0  0  0  0
   15.2390  136.2782   -3.6258 C   0  0  0  0  0  0  0  0  0  0  0  0
   15.0185  134.7954   -3.3779 C   0  0  0  0  0  0  0  0  0  0  0  0
   13.7707  134.2290   -3.6169 C   0  0  0  0  0  0  0  0  0  0  0  0
   13.5916  132.8693   -3.3828 C   0  0  0  0  0  0  0  0  0  0  0  0
   14.6367  132.0787   -2.9167 C   0  0  0  0  0  0  0  0  0  0  0  0
   15.8763  132.6654   -2.6840 C   0  0  0  0  0  0  0  0  0  0  0  0
   16.9361  131.8749   -2.2132 O   0  0  0  0  0  0  0  0  0  0  0  0
   18.2267  132.2675   -2.1630 C   0  0  0  0  0  0  0  0  0  0  0  0
   18.7724  132.6109   -0.9305 C   0  0  0  0  0  0  0  0  0  0  0  0
   20.1015  133.0167   -0.8711 C   0  0  0  0  0  0  0  0  0  0  0  0
   20.7084  133.3946    0.4706 C   0  0  0  0  0  0  0  0  0  0  0  0
   21.4057  134.7752    0.4395 C   0  0  0  0  0  0  0  0  0  0  0  0
   21.7078  132.3627    0.8196 N   0  0  0  0  0  0  0  0  0  0  0  0
   19.5894  133.4810    1.5213 C   0  0  0  0  0  0  0  0  0  0  0  0
   19.3480  132.5699    2.5072 C   0  0  0  0  0  0  0  0  0  0  0  0
   18.2751  133.0251    3.2148 N   0  0  0  0  0  0  0  0  0  0  0  0
   17.8757  134.1628    2.6876 C   0  0  0  0  0  0  0  0  0  0  0  0
   18.6757  134.4809    1.6345 N   0  0  0  0  0  0  0  0  0  0  0  0
   18.5692  135.6707    0.7768 C   0  0  0  0  0  0  0  0  0  0  0  0
   20.8828  133.0820   -2.0204 C   0  0  0  0  0  0  0  0  0  0  0  0
   20.3264  132.7361   -3.2474 C   0  0  0  0  0  0  0  0  0  0  0  0
   18.9982  132.3286   -3.3187 C   0  0  0  0  0  0  0  0  0  0  0  0
   18.4213  131.9699   -4.5909 C   0  0  0  0  0  0  0  0  0  0  0  0
   17.9579  131.6837   -5.6117 N   0  0  0  0  0  0  0  0  0  0  0  0
   16.0773  134.0228   -2.9115 C   0  0  0  0  0  0  0  0  0  0  0  0
   16.6716  136.5661   -3.1941 C   0  0  0  0  0  0  0  0  0  0  0  0
   17.2683  137.8426   -3.7783 C   0  0  0  0  0  0  0  0  0  0  0  0
   17.9488  137.5677   -5.1094 C   0  0  0  0  0  0  0  0  0  0  0  0
   17.3053  136.3286   -5.7110 C   0  0  0  0  0  0  0  0  0  0  0  0
   15.9097  136.5917   -6.0954 N   0  0  0  0  0  0  0  0  0  0  0  0
   15.5799  136.8789   -7.5006 C   0  0  0  0  0  0  0  0  0  0  0  0
   14.9273  136.5592   -5.0921 C   0  0  0  0  0  0  0  0  0  0  0  0
   13.7725  136.7716   -5.4153 O   0  0  0  0  0  0  0  0  0  0  0  0
  1  2  1  0
  2  3  1  0
  3  4  1  0
  4  5  2  0
  5  6  1  0
  6  7  2  0
  7  8  1  0
  8  9  1  0
  9 10  1  0
 10 11  2  0
 11 12  1  0
 12 13  1  0
 13 14  1  0
 13 15  1  0
 13 16  1  0
 16 17  2  0
 17 18  1  0
 18 19  2  0
 19 20  1  0
 20 21  1  0
 12 22  2  0
 22 23  1  0
 23 24  2  0
 24 25  1  0
 25 26  3  0
  8 27  2  0
  3 28  1  0
 28 29  1  0
 29 30  1  0
 30 31  1  0
 31 32  1  0
 32 33  1  0
 32 34  1  0
 34 35  2  0
 34  3  1  0
 27  4  1  0
 24 10  1  0
 20 16  1  0
M  CHG  1  15   1
M  END
>  <BIOSOLVEIT.HYDE_ESTIMATED_AFFINITY_LOWER_BOUNDARY [nM]>  (3) 
0.177304

>  <BIOSOLVEIT.HYDE_ESTIMATED_AFFINITY_UPPER_BOUNDARY [nM]>  (3) 
17.616167

>  <BIOSOLVEIT.HYDE_LIGAND_EFFICIENCY range: ++, +, 0, -, -->  (3) 
0

>  <BIOSOLVEIT.HYDE_LIGAND_LIPOPHILIC_EFFICIENCY range: ++, +, 0, -, -->  (3) 
0

>  <BIOSOLVEIT.INTER_CLASH range: red, yellow, green>  (3) 
yellow

>  <BIOSOLVEIT.INTRA_CLASH range: red, yellow, green>  (3) 
yellow

>  <BIOSOLVEIT.LOGP>  (3) 
3.87958

>  <BIOSOLVEIT.MOLECULAR WEIGHT>  (3) 
472.61

>  <BIOSOLVEIT.MOLECULE_CHECKSUM>  (3) 
LTQ5Ljk2MDQ7MS40Mjc0NA==

>  <BIOSOLVEIT.TORSION_QUALITY range: red, yellow, green, not rotatable>  (3) 
green

>  <BIOSOLVEIT.TPSA>  (3) 
98.79

$$$$
1LD7_U66_1
     RDKit          3D

 34 39  0  0  0  0  0  0  0  0999 V2000
   17.6554  138.3137   -8.0989 N   0  0  0  0  0  0  0  0  0  0  0  0
   16.7573  138.3353   -7.3695 C   0  0  0  0  0  0  0  0  0  0  0  0
   15.6134  138.3635   -6.4365 C   0  0  0  0  0  0  0  0  0  0  0  0
   15.4172  139.7968   -5.8985 C   0  0  0  0  0  0  0  0  0  0  0  0
   16.5131  140.1222   -4.9235 C   0  0  0  0  0  0  0  0  0  0  0  0
   16.8517  139.2124   -3.9945 C   0  0  0  0  0  0  0  0  0  0  0  0
   16.0337  137.9449   -3.8984 C   0  0  0  0  0  0  0  0  0  0  0  0
   15.8047  137.3057   -5.2943 C   0  0  0  0  0  0  0  0  0  0  0  0
   14.6370  136.4813   -5.2528 O   0  0  0  0  0  0  0  0  0  0  0  0
   14.5121  135.2337   -4.6206 C   0  0  0  0  0  0  0  0  0  0  0  0
   13.2418  134.6523   -4.5952 C   0  0  0  0  0  0  0  0  0  0  0  0
   13.0364  133.4098   -3.9986 C   0  0  0  0  0  0  0  0  0  0  0  0
   14.1067  132.7226   -3.4138 C   0  0  0  0  0  0  0  0  0  0  0  0
   13.8944  131.4702   -2.8196 C   0  0  0  0  0  0  0  0  0  0  0  0
   14.9561  130.7819   -2.2356 C   0  0  0  0  0  0  0  0  0  0  0  0
   16.2359  131.3347   -2.2379 C   0  0  0  0  0  0  0  0  0  0  0  0
   16.4764  132.5845   -2.8307 C   0  0  0  0  0  0  0  0  0  0  0  0
   15.4061  133.2940   -3.4246 C   0  0  0  0  0  0  0  0  0  0  0  0
   15.5978  134.5506   -4.0347 C   0  0  0  0  0  0  0  0  0  0  0  0
   17.8036  133.1315   -2.7807 N   0  0  0  0  0  0  0  0  0  0  0  0
   18.9483  132.4463   -3.3710 C   0  0  0  0  0  0  0  0  0  0  0  0
   20.0876  132.5290   -2.3379 C   0  0  0  0  0  0  0  0  0  0  0  0
   19.6664  133.5960   -1.3056 C   0  0  0  0  0  0  0  0  0  0  0  0
   20.5154  134.8096   -1.3041 N   0  0  0  0  0  0  0  0  0  0  0  0
   20.6260  135.5506   -2.5823 C   0  0  0  0  0  0  0  0  0  0  0  0
   19.4879  136.5685   -2.7938 C   0  0  0  0  0  0  0  0  0  0  0  0
   19.8294  137.6103   -3.8338 C   0  0  0  0  0  0  0  0  0  0  0  0
   20.7219  137.4695   -4.8812 C   0  0  0  0  0  0  0  0  0  0  0  0
   20.7178  138.5887   -5.6312 N   0  0  0  0  0  0  0  0  0  0  0  0
   19.8114  139.3893   -5.0352 C   0  0  0  0  0  0  0  0  0  0  0  0
   19.2484  138.8235   -3.9476 N   0  0  0  0  0  0  0  0  0  0  0  0
   18.1185  139.3757   -3.1950 C   0  0  0  0  0  0  0  0  0  0  0  0
   18.2488  133.8582   -1.6488 C   0  0  0  0  0  0  0  0  0  0  0  0
   17.4840  134.5825   -0.9569 O   0  0  0  0  0  0  0  0  0  0  0  0
  1  2  3  0
  2  3  1  0
  3  4  1  0
  4  5  1  0
  5  6  2  0
  6  7  1  0
  7  8  1  0
  8  9  1  0
  9 10  1  0
 10 11  2  0
 11 12  1  0
 12 13  2  0
 13 14  1  0
 14 15  2  0
 15 16  1  0
 16 17  2  0
 17 18  1  0
 18 19  2  0
 17 20  1  0
 20 21  1  0
 21 22  1  0
 22 23  1  0
 23 24  1  0
 24 25  1  0
 25 26  1  0
 26 27  1  0
 27 28  2  0
 28 29  1  0
 29 30  2  0
 30 31  1  0
 31 32  1  0
 23 33  1  0
 33 34  2  0
  8  3  1  0
 19 10  1  0
 33 20  1  0
 32  6  1  0
 18 13  1  0
 31 27  1  0
M  CHG  1  24   1
M  END
>  <BIOSOLVEIT.HYDE_ESTIMATED_AFFINITY_LOWER_BOUNDARY [nM]>  (4) 
66310.495969

>  <BIOSOLVEIT.HYDE_ESTIMATED_AFFINITY_UPPER_BOUNDARY [nM]>  (4) 
6588339.833205

>  <BIOSOLVEIT.HYDE_LIGAND_EFFICIENCY range: ++, +, 0, -, -->  (4) 
--

>  <BIOSOLVEIT.HYDE_LIGAND_LIPOPHILIC_EFFICIENCY range: ++, +, 0, -, -->  (4) 
--

>  <BIOSOLVEIT.INTER_CLASH range: red, yellow, green>  (4) 
green

>  <BIOSOLVEIT.INTRA_CLASH range: red, yellow, green>  (4) 
green

>  <BIOSOLVEIT.LOGP>  (4) 
2.56868

>  <BIOSOLVEIT.MOLECULAR WEIGHT>  (4) 
454.551

>  <BIOSOLVEIT.MOLECULE_CHECKSUM>  (4) 
LTE4LjE1MDQ7MC41MzM4Mzc=

>  <BIOSOLVEIT.TORSION_QUALITY range: red, yellow, green, not rotatable>  (4) 
not rotatable

>  <BIOSOLVEIT.TPSA>  (4) 
87.76

$$$$
1S63_778_2
     RDKit          3D

 29 32  0  0  0  0  0  0  0  0999 V2000
   18.9137  132.9285    3.5462 N   0  0  0  0  0  0  0  0  0  0  0  0
   19.0164  133.0749    2.4031 C   0  0  0  0  0  0  0  0  0  0  0  0
   19.1421  133.2553    0.9807 C   0  0  0  0  0  0  0  0  0  0  0  0
   18.4295  134.2744    0.3567 C   0  0  0  0  0  0  0  0  0  0  0  0
   18.5418  134.4611   -1.0169 C   0  0  0  0  0  0  0  0  0  0  0  0
   19.3708  133.6189   -1.7506 C   0  0  0  0  0  0  0  0  0  0  0  0
   19.5015  133.8108   -3.2528 C   0  0  0  0  0  0  0  0  0  0  0  0
   20.7836  134.4351   -3.5932 N   0  0  0  0  0  0  0  0  0  0  0  0
   21.9426  133.7657   -3.8582 C   0  0  0  0  0  0  0  0  0  0  0  0
   22.8705  134.6592   -4.1222 N   0  0  0  0  0  0  0  0  0  0  0  0
   22.3215  135.9070   -4.0302 C   0  0  0  0  0  0  0  0  0  0  0  0
   21.0053  135.7742   -3.6963 C   0  0  0  0  0  0  0  0  0  0  0  0
   19.9985  136.8941   -3.4902 C   0  0  0  0  0  0  0  0  0  0  0  0
   19.1733  137.1341   -4.7007 N   0  0  0  0  0  0  0  0  0  0  0  0
   18.1817  136.0620   -4.8735 C   0  0  0  0  0  0  0  0  0  0  0  0
   17.2500  136.4450   -6.0167 C   0  0  0  0  0  0  0  0  0  0  0  0
   17.9885  136.8184   -7.2325 N   0  0  0  0  0  0  0  0  0  0  0  0
   17.3092  136.8121   -8.4543 C   0  0  0  0  0  0  0  0  0  0  0  0
   17.6426  135.8647   -9.4170 C   0  0  0  0  0  0  0  0  0  0  0  0
   16.9622  135.8620  -10.6304 C   0  0  0  0  0  0  0  0  0  0  0  0
   15.9597  136.7910  -10.8873 C   0  0  0  0  0  0  0  0  0  0  0  0
   15.6421  137.7293   -9.9105 C   0  0  0  0  0  0  0  0  0  0  0  0
   14.3618  138.9264  -10.2196 Cl  0  0  0  0  0  0  0  0  0  0  0  0
   16.3096  137.7500   -8.6903 C   0  0  0  0  0  0  0  0  0  0  0  0
   19.3447  137.1717   -7.1837 C   0  0  0  0  0  0  0  0  0  0  0  0
   19.9564  137.5255   -8.1764 O   0  0  0  0  0  0  0  0  0  0  0  0
   20.0845  137.1157   -5.8523 C   0  0  0  0  0  0  0  0  0  0  0  0
   20.0843  132.5986   -1.1303 C   0  0  0  0  0  0  0  0  0  0  0  0
   19.9704  132.4146    0.2442 C   0  0  0  0  0  0  0  0  0  0  0  0
  1  2  3  0
  2  3  1  0
  3  4  2  0
  4  5  1  0
  5  6  2  0
  6  7  1  0
  7  8  1  0
  8  9  1  0
  9 10  2  0
 10 11  1  0
 11 12  2  0
 12 13  1  0
 13 14  1  0
 14 15  1  0
 15 16  1  0
 16 17  1  0
 17 18  1  0
 18 19  2  0
 19 20  1  0
 20 21  2  0
 21 22  1  0
 22 23  1  0
 22 24  2  0
 17 25  1  0
 25 26  2  0
 25 27  1  0
  6 28  1  0
 28 29  2  0
 29  3  1  0
 12  8  1  0
 27 14  1  0
 24 18  1  0
M  CHG  1  14   1
M  END
>  <BIOSOLVEIT.HYDE_ESTIMATED_AFFINITY_LOWER_BOUNDARY [nM]>  (5) 
5419.111123

>  <BIOSOLVEIT.HYDE_ESTIMATED_AFFINITY_UPPER_BOUNDARY [nM]>  (5) 
538420.730402

>  <BIOSOLVEIT.HYDE_LIGAND_EFFICIENCY range: ++, +, 0, -, -->  (5) 
-

>  <BIOSOLVEIT.HYDE_LIGAND_LIPOPHILIC_EFFICIENCY range: ++, +, 0, -, -->  (5) 
-

>  <BIOSOLVEIT.INTER_CLASH range: red, yellow, green>  (5) 
green

>  <BIOSOLVEIT.INTRA_CLASH range: red, yellow, green>  (5) 
green

>  <BIOSOLVEIT.LOGP>  (5) 
1.88818

>  <BIOSOLVEIT.MOLECULAR WEIGHT>  (5) 
406.895

>  <BIOSOLVEIT.MOLECULE_CHECKSUM>  (5) 
LTI0LjM1ODg7MC44Mzk5NTg=

>  <BIOSOLVEIT.TORSION_QUALITY range: red, yellow, green, not rotatable>  (5) 
green

>  <BIOSOLVEIT.TPSA>  (5) 
66.36

$$$$
3E37_ED5_2
     RDKit          3D

 43 46  0  0  0  0  0  0  0  0999 V2000
   20.5222  137.0987   -4.4861 C   0  0  0  0  0  0  0  0  0  0  0  0
   19.9039  138.4864   -4.4380 C   0  0  0  0  0  0  0  0  0  0  0  0
   20.4381  139.4158   -3.5512 C   0  0  0  0  0  0  0  0  0  0  0  0
   19.8900  140.6923   -3.4882 C   0  0  0  0  0  0  0  0  0  0  0  0
   18.8177  141.0296   -4.3076 C   0  0  0  0  0  0  0  0  0  0  0  0
   18.2822  140.1015   -5.1947 C   0  0  0  0  0  0  0  0  0  0  0  0
   18.8306  138.8242   -5.2573 C   0  0  0  0  0  0  0  0  0  0  0  0
   18.1356  137.6552   -6.3934 S   0  0  0  0  0  0  0  0  0  0  0  0
   17.3641  138.4020   -7.4471 O   0  0  0  0  0  0  0  0  0  0  0  0
   19.2576  136.8956   -7.0457 O   0  0  0  0  0  0  0  0  0  0  0  0
   17.0613  136.5726   -5.5237 N   0  0  0  0  0  0  0  0  0  0  0  0
   17.8206  135.4985   -4.8532 C   0  0  0  0  0  0  0  0  0  0  0  0
   17.8189  134.1908   -5.6628 C   0  0  0  0  0  0  0  0  0  0  0  0
   17.6812  133.0382   -4.7628 N   0  0  0  0  0  0  0  0  0  0  0  0
   18.7850  132.0948   -4.5565 C   0  0  0  0  0  0  0  0  0  0  0  0
   19.6778  132.5734   -3.4495 C   0  0  0  0  0  0  0  0  0  0  0  0
   20.9223  133.1099   -3.6031 C   0  0  0  0  0  0  0  0  0  0  0  0
   21.3818  133.4112   -2.3553 N   0  0  0  0  0  0  0  0  0  0  0  0
   20.4624  133.0748   -1.4761 C   0  0  0  0  0  0  0  0  0  0  0  0
   19.3841  132.5555   -2.1225 N   0  0  0  0  0  0  0  0  0  0  0  0
   18.1435  132.0611   -1.5071 C   0  0  0  0  0  0  0  0  0  0  0  0
   16.4276  132.7723   -4.1987 C   0  0  0  0  0  0  0  0  0  0  0  0
   16.1706  131.5117   -3.6693 C   0  0  0  0  0  0  0  0  0  0  0  0
   14.9295  131.2338   -3.1064 C   0  0  0  0  0  0  0  0  0  0  0  0
   13.9582  132.2284   -3.0810 C   0  0  0  0  0  0  0  0  0  0  0  0
   12.6704  131.9537   -2.5001 C   0  0  0  0  0  0  0  0  0  0  0  0
   11.6358  131.7334   -2.0312 N   0  0  0  0  0  0  0  0  0  0  0  0
   14.2104  133.4907   -3.6087 C   0  0  0  0  0  0  0  0  0  0  0  0
   15.4529  133.7646   -4.1711 C   0  0  0  0  0  0  0  0  0  0  0  0
   16.0193  137.2658   -4.7186 C   0  0  0  0  0  0  0  0  0  0  0  0
   16.2393  137.3087   -3.1792 C   0  0  0  0  0  0  0  0  0  0  0  0
   16.4804  138.7370   -2.7181 C   0  0  0  0  0  0  0  0  0  0  0  0
   16.7543  138.6432   -1.2263 C   0  0  0  0  0  0  0  0  0  0  0  0
   15.5154  138.1860   -0.5789 N   0  0  0  0  0  0  0  0  0  0  0  0
   15.3395  138.4324    0.7879 C   0  0  0  0  0  0  0  0  0  0  0  0
   14.1872  138.3663    1.2965 O   0  0  0  0  0  0  0  0  0  0  0  0
   16.4522  138.7447    1.5864 O   0  0  0  0  0  0  0  0  0  0  0  0
   17.2913  137.8119    2.2832 C   0  0  0  0  0  0  0  0  0  0  0  0
   18.6732  137.8590    1.6140 C   0  0  0  0  0  0  0  0  0  0  0  0
   17.4410  138.2147    3.7627 C   0  0  0  0  0  0  0  0  0  0  0  0
   16.7287  136.3828    2.1620 C   0  0  0  0  0  0  0  0  0  0  0  0
   14.4715  137.4847   -1.3482 C   0  0  0  0  0  0  0  0  0  0  0  0
   15.0225  136.6764   -2.5177 C   0  0  0  0  0  0  0  0  0  0  0  0
  1  2  1  0
  2  3  2  0
  3  4  1  0
  4  5  2  0
  5  6  1  0
  6  7  2  0
  7  8  1  0
  8  9  2  0
  8 10  2  0
  8 11  1  0
 11 12  1  0
 12 13  1  0
 13 14  1  0
 14 15  1  0
 15 16  1  0
 16 17  2  0
 17 18  1  0
 18 19  2  0
 19 20  1  0
 20 21  1  0
 14 22  1  0
 22 23  2  0
 23 24  1  0
 24 25  2  0
 25 26  1  0
 26 27  3  0
 25 28  1  0
 28 29  2  0
 11 30  1  0
 30 31  1  0
 31 32  1  0
 32 33  1  0
 33 34  1  0
 34 35  1  0
 35 36  2  0
 35 37  1  0
 37 38  1  0
 38 39  1  0
 38 40  1  0
 38 41  1  0
 34 42  1  0
 42 43  1  0
  7  2  1  0
 20 16  1  0
 29 22  1  0
 43 31  1  0
M  END
>  <BIOSOLVEIT.HYDE_ESTIMATED_AFFINITY_LOWER_BOUNDARY [nM]>  (6) 
3.096521

>  <BIOSOLVEIT.HYDE_ESTIMATED_AFFINITY_UPPER_BOUNDARY [nM]>  (6) 
307.657630

>  <BIOSOLVEIT.HYDE_LIGAND_EFFICIENCY range: ++, +, 0, -, -->  (6) 
-

>  <BIOSOLVEIT.HYDE_LIGAND_LIPOPHILIC_EFFICIENCY range: ++, +, 0, -, -->  (6) 
--

>  <BIOSOLVEIT.INTER_CLASH range: red, yellow, green>  (6) 
green

>  <BIOSOLVEIT.INTRA_CLASH range: red, yellow, green>  (6) 
yellow

>  <BIOSOLVEIT.LOGP>  (6) 
5.5954

>  <BIOSOLVEIT.MOLECULAR WEIGHT>  (6) 
606.787

>  <BIOSOLVEIT.MOLECULE_CHECKSUM>  (6) 
LTQyLjg3MDI7MC45OTY5ODE=

>  <BIOSOLVEIT.TORSION_QUALITY range: red, yellow, green, not rotatable>  (6) 
red

>  <BIOSOLVEIT.TPSA>  (6) 
111.77

$$$$
2IEJ_S48_2
     RDKit          3D

 38 42  0  0  0  0  0  0  0  0999 V2000
   15.3847  138.1881   -8.9973 C   0  0  0  0  0  0  0  0  0  0  0  0
   15.8633  138.4444   -7.6829 O   0  0  0  0  0  0  0  0  0  0  0  0
   17.0965  137.9709   -7.2258 C   0  0  0  0  0  0  0  0  0  0  0  0
   17.8415  137.2848   -7.9786 O   0  0  0  0  0  0  0  0  0  0  0  0
   17.5162  138.2482   -5.8145 C   0  0  0  0  0  0  0  0  0  0  0  0
   18.5380  137.2704   -5.3695 N   0  0  0  0  0  0  0  0  0  0  0  0
   18.0418  136.3307   -4.3147 C   0  0  0  0  0  0  0  0  0  0  0  0
   19.1859  135.4037   -3.9376 C   0  0  0  0  0  0  0  0  0  0  0  0
   18.6061  134.4323   -2.9255 C   0  0  0  0  0  0  0  0  0  0  0  0
   19.3180  134.1205   -1.7729 C   0  0  0  0  0  0  0  0  0  0  0  0
   18.7394  133.2563   -0.8475 C   0  0  0  0  0  0  0  0  0  0  0  0
   19.4558  132.9587    0.3778 C   0  0  0  0  0  0  0  0  0  0  0  0
   18.9160  133.3504    1.5981 C   0  0  0  0  0  0  0  0  0  0  0  0
   19.6084  133.0624    2.7694 C   0  0  0  0  0  0  0  0  0  0  0  0
   20.8248  132.3908    2.7214 C   0  0  0  0  0  0  0  0  0  0  0  0
   21.3574  132.0030    1.4960 C   0  0  0  0  0  0  0  0  0  0  0  0
   20.6725  132.2866    0.3191 C   0  0  0  0  0  0  0  0  0  0  0  0
   17.4900  132.6900   -1.0766 C   0  0  0  0  0  0  0  0  0  0  0  0
   16.8161  133.0087   -2.2516 C   0  0  0  0  0  0  0  0  0  0  0  0
   17.3583  133.8778   -3.1922 C   0  0  0  0  0  0  0  0  0  0  0  0
   16.6930  134.2292   -4.3821 N   0  0  0  0  0  0  0  0  0  0  0  0
   15.8734  133.2685   -5.1356 C   0  0  0  0  0  0  0  0  0  0  0  0
   14.6426  132.8765   -4.3624 C   0  0  0  0  0  0  0  0  0  0  0  0
   14.4351  131.6775   -3.7462 C   0  0  0  0  0  0  0  0  0  0  0  0
   13.2039  131.7381   -3.1638 N   0  0  0  0  0  0  0  0  0  0  0  0
   12.6792  132.9192   -3.4112 C   0  0  0  0  0  0  0  0  0  0  0  0
   13.5506  133.6575   -4.1500 N   0  0  0  0  0  0  0  0  0  0  0  0
   13.3491  135.0311   -4.6348 C   0  0  0  0  0  0  0  0  0  0  0  0
   16.8126  135.6171   -4.8587 C   0  0  0  0  0  0  0  0  0  0  0  0
   19.9669  138.1558   -4.8178 S   0  0  0  0  0  0  0  0  0  0  0  0
   21.1763  137.8222   -5.6468 O   0  0  0  0  0  0  0  0  0  0  0  0
   20.2672  137.7614   -3.3985 O   0  0  0  0  0  0  0  0  0  0  0  0
   19.7339  139.8988   -4.8976 C   0  0  0  0  0  0  0  0  0  0  0  0
   19.4132  140.6971   -3.8428 C   0  0  0  0  0  0  0  0  0  0  0  0
   19.3326  141.9558   -4.3494 N   0  0  0  0  0  0  0  0  0  0  0  0
   19.0115  143.1716   -3.5882 C   0  0  0  0  0  0  0  0  0  0  0  0
   19.6023  141.9006   -5.6823 C   0  0  0  0  0  0  0  0  0  0  0  0
   19.8475  140.6574   -6.0246 N   0  0  0  0  0  0  0  0  0  0  0  0
  1  2  1  0
  2  3  1  0
  3  4  2  0
  3  5  1  0
  5  6  1  0
  6  7  1  0
  7  8  1  0
  8  9  1  0
  9 10  2  0
 10 11  1  0
 11 12  1  0
 12 13  2  0
 13 14  1  0
 14 15  2  0
 15 16  1  0
 16 17  2  0
 11 18  2  0
 18 19  1  0
 19 20  2  0
 20 21  1  0
 21 22  1  0
 22 23  1  0
 23 24  2  0
 24 25  1  0
 25 26  2  0
 26 27  1  0
 27 28  1  0
 21 29  1  0
  6 30  1  0
 30 31  2  0
 30 32  2  0
 30 33  1  0
 33 34  2  0
 34 35  1  0
 35 36  1  0
 35 37  1  0
 37 38  2  0
 29  7  1  0
 38 33  1  0
 20  9  1  0
 27 23  1  0
 17 12  1  0
M  END
>  <BIOSOLVEIT.HYDE_ESTIMATED_AFFINITY_LOWER_BOUNDARY [nM]>  (7) 
688872688.038962

>  <BIOSOLVEIT.HYDE_ESTIMATED_AFFINITY_UPPER_BOUNDARY [nM]>  (7) 
68443574494.339554

>  <BIOSOLVEIT.HYDE_LIGAND_EFFICIENCY range: ++, +, 0, -, -->  (7) 
--

>  <BIOSOLVEIT.HYDE_LIGAND_LIPOPHILIC_EFFICIENCY range: ++, +, 0, -, -->  (7) 
--

>  <BIOSOLVEIT.INTER_CLASH range: red, yellow, green>  (7) 
green

>  <BIOSOLVEIT.INTRA_CLASH range: red, yellow, green>  (7) 
red

>  <BIOSOLVEIT.LOGP>  (7) 
3.2664

>  <BIOSOLVEIT.MOLECULAR WEIGHT>  (7) 
534.637

>  <BIOSOLVEIT.MOLECULE_CHECKSUM>  (7) 
NC43NzYxOzA=

>  <BIOSOLVEIT.TORSION_QUALITY range: red, yellow, green, not rotatable>  (7) 
red

>  <BIOSOLVEIT.TPSA>  (7) 
102.56

$$$$
