1FPU_PRC_1
foFlexX   03222115263D 1   1.00000     0.00000     0
FlexX 4.5.0 fol007
 47 50  0  0  0  0            999 V2000
   -2.9433    9.6199   21.1871 C   0  0  0  0  0  0  0  0  0  0  0  0
   -3.0096    9.2323   22.6554 C   0  0  0  0  0  0  0  0  0  0  0  0
   -4.0668    9.7061   23.4252 C   0  0  0  0  0  0  0  0  0  0  0  0
   -4.1533    9.3672   24.7717 C   0  0  0  0  0  0  0  0  0  0  0  0
   -3.1755    8.5536   25.3344 C   0  0  0  0  0  0  0  0  0  0  0  0
   -3.2552    8.1974   26.7252 N   0  0  0  0  0  0  0  0  0  0  0  0
   -2.1059    7.9319   27.5522 C   0  0  0  0  0  0  0  0  0  0  0  0
   -0.9472    8.0072   27.0603 O   0  0  0  0  0  0  0  0  0  0  0  0
   -2.2528    7.5766   28.9847 C   0  0  0  0  0  0  0  0  0  0  0  0
   -1.5835    6.4650   29.4856 C   0  0  0  0  0  0  0  0  0  0  0  0
   -1.7231    6.1357   30.8293 C   0  0  0  0  0  0  0  0  0  0  0  0
   -2.5317    6.9331   31.6322 C   0  0  0  0  0  0  0  0  0  0  0  0
   -3.1672    8.0003   31.1259 N   0  0  0  0  0  0  0  0  0  0  0  0
   -3.0486    8.3391   29.8333 C   0  0  0  0  0  0  0  0  0  0  0  0
   -2.1152    8.0758   24.5711 C   0  0  0  0  0  0  0  0  0  0  0  0
   -2.0350    8.4189   23.2252 C   0  0  0  0  0  0  0  0  0  0  0  0
   -0.9739    7.9456   22.4439 N   0  0  0  0  0  0  0  0  0  0  0  0
   -1.1490    7.1262   21.2798 C   0  0  0  0  0  0  0  0  0  0  0  0
   -2.2563    6.3768   21.1757 N   0  0  0  0  0  0  0  0  0  0  0  0
   -2.4728    5.5917   20.1101 C   0  0  0  0  0  0  0  0  0  0  0  0
   -1.5316    5.5498   19.0868 C   0  0  0  0  0  0  0  0  0  0  0  0
   -0.3864    6.3302   19.2037 C   0  0  0  0  0  0  0  0  0  0  0  0
    0.6013    6.2921   18.1401 C   0  0  0  0  0  0  0  0  0  0  0  0
    1.0595    5.0636   17.6761 C   0  0  0  0  0  0  0  0  0  0  0  0
    2.0047    5.0314   16.6568 C   0  0  0  0  0  0  0  0  0  0  0  0
    2.4631    6.2351   16.1323 C   0  0  0  0  0  0  0  0  0  0  0  0
    2.0062    7.4076   16.5967 N   0  0  0  0  0  0  0  0  0  0  0  0
    1.0943    7.4655   17.5789 C   0  0  0  0  0  0  0  0  0  0  0  0
   -0.2333    7.0935   20.2981 N   0  0  0  0  0  0  0  0  0  0  0  0
   -2.1342    9.2064   20.7694 H   0  0  0  0  0  0  0  0  0  0  0  0
   -3.7641    9.2930   20.7186 H   0  0  0  0  0  0  0  0  0  0  0  0
   -2.8879   10.6151   21.1072 H   0  0  0  0  0  0  0  0  0  0  0  0
   -4.7646   10.2903   23.0108 H   0  0  0  0  0  0  0  0  0  0  0  0
   -4.9112    9.7053   25.3297 H   0  0  0  0  0  0  0  0  0  0  0  0
   -4.1613    8.1300   27.1428 H   0  0  0  0  0  0  0  0  0  0  0  0
   -1.0083    5.9086   28.8860 H   0  0  0  0  0  0  0  0  0  0  0  0
   -1.2512    5.3409   31.2109 H   0  0  0  0  0  0  0  0  0  0  0  0
   -2.6407    6.7077   32.6004 H   0  0  0  0  0  0  0  0  0  0  0  0
   -3.5323    9.1398   29.4798 H   0  0  0  0  0  0  0  0  0  0  0  0
   -1.4175    7.4914   24.9856 H   0  0  0  0  0  0  0  0  0  0  0  0
   -0.0427    8.1924   22.7123 H   0  0  0  0  0  0  0  0  0  0  0  0
   -3.3051    5.0403   20.0517 H   0  0  0  0  0  0  0  0  0  0  0  0
   -1.6753    4.9709   18.2842 H   0  0  0  0  0  0  0  0  0  0  0  0
    0.7129    4.2129   18.0711 H   0  0  0  0  0  0  0  0  0  0  0  0
    2.3482    4.1595   16.3077 H   0  0  0  0  0  0  0  0  0  0  0  0
    3.1428    6.2264   15.3988 H   0  0  0  0  0  0  0  0  0  0  0  0
    0.7690    8.3522   17.9076 H   0  0  0  0  0  0  0  0  0  0  0  0
  1  2  1  0  0  0  0
  2  3  2  0  0  0  0
  3  4  1  0  0  0  0
  4  5  2  0  0  0  0
  5  6  1  0  0  0  0
  6  7  1  0  0  0  0
  7  8  2  0  0  0  0
  7  9  1  0  0  0  0
  9 10  2  0  0  0  0
 10 11  1  0  0  0  0
 11 12  2  0  0  0  0
 12 13  1  0  0  0  0
 13 14  2  0  0  0  0
  5 15  1  0  0  0  0
 15 16  2  0  0  0  0
 16 17  1  0  0  0  0
 17 18  1  0  0  0  0
 18 19  2  0  0  0  0
 19 20  1  0  0  0  0
 20 21  2  0  0  0  0
 21 22  1  0  0  0  0
 22 23  1  0  0  0  0
 23 24  2  0  0  0  0
 24 25  1  0  0  0  0
 25 26  2  0  0  0  0
 26 27  1  0  0  0  0
 27 28  2  0  0  0  0
 22 29  2  0  0  0  0
 16  2  1  0  0  0  0
 29 18  1  0  0  0  0
 14  9  1  0  0  0  0
 28 23  1  0  0  0  0
  1 30  1  0  0  0  0
  1 31  1  0  0  0  0
  1 32  1  0  0  0  0
  3 33  1  0  0  0  0
  4 34  1  0  0  0  0
  6 35  1  0  0  0  0
 10 36  1  0  0  0  0
 11 37  1  0  0  0  0
 12 38  1  0  0  0  0
 14 39  1  0  0  0  0
 15 40  1  0  0  0  0
 17 41  1  0  0  0  0
 20 42  1  0  0  0  0
 21 43  1  0  0  0  0
 24 44  1  0  0  0  0
 25 45  1  0  0  0  0
 26 46  1  0  0  0  0
 28 47  1  0  0  0  0
M  END
>  <docking-score>
-22.61

$$$$
1FPU_PRC_2
foFlexX   03222115263D 1   1.00000     0.00000     0
FlexX 4.5.0 fol007
 47 50  0  0  0  0            999 V2000
   -4.3834    9.4289   24.2479 C   0  0  0  0  0  0  0  0  0  0  0  0
   -3.5342    8.4866   25.0855 C   0  0  0  0  0  0  0  0  0  0  0  0
   -3.9767    8.1395   26.3577 C   0  0  0  0  0  0  0  0  0  0  0  0
   -3.2202    7.2786   27.1464 C   0  0  0  0  0  0  0  0  0  0  0  0
   -2.0236    6.7726   26.6494 C   0  0  0  0  0  0  0  0  0  0  0  0
   -1.2547    5.9057   27.4351 N   0  0  0  0  0  0  0  0  0  0  0  0
   -0.9173    4.5596   27.0484 C   0  0  0  0  0  0  0  0  0  0  0  0
   -1.3215    4.1029   25.9442 O   0  0  0  0  0  0  0  0  0  0  0  0
   -0.0909    3.6912   27.9220 C   0  0  0  0  0  0  0  0  0  0  0  0
    0.0133    3.9858   29.2773 C   0  0  0  0  0  0  0  0  0  0  0  0
    0.7881    3.1687   30.0930 C   0  0  0  0  0  0  0  0  0  0  0  0
    1.4367    2.0781   29.5235 C   0  0  0  0  0  0  0  0  0  0  0  0
    1.3209    1.8146   28.2135 N   0  0  0  0  0  0  0  0  0  0  0  0
    0.5793    2.5872   27.4055 C   0  0  0  0  0  0  0  0  0  0  0  0
   -1.5745    7.1150   25.3781 C   0  0  0  0  0  0  0  0  0  0  0  0
   -2.3361    7.9766   24.5950 C   0  0  0  0  0  0  0  0  0  0  0  0
   -1.8973    8.3303   23.3133 N   0  0  0  0  0  0  0  0  0  0  0  0
   -1.6699    7.3813   22.2621 C   0  0  0  0  0  0  0  0  0  0  0  0
   -1.8851    6.0802   22.5062 N   0  0  0  0  0  0  0  0  0  0  0  0
   -1.6889    5.1488   21.5614 C   0  0  0  0  0  0  0  0  0  0  0  0
   -1.2526    5.5348   20.2982 C   0  0  0  0  0  0  0  0  0  0  0  0
   -1.0320    6.8861   20.0546 C   0  0  0  0  0  0  0  0  0  0  0  0
   -0.5763    7.2975   18.7388 C   0  0  0  0  0  0  0  0  0  0  0  0
   -0.9276    8.5534   18.2553 C   0  0  0  0  0  0  0  0  0  0  0  0
   -0.4885    8.9441   16.9952 C   0  0  0  0  0  0  0  0  0  0  0  0
    0.2918    8.0613   16.2560 C   0  0  0  0  0  0  0  0  0  0  0  0
    0.6174    6.8551   16.7440 N   0  0  0  0  0  0  0  0  0  0  0  0
    0.2066    6.4548   17.9567 C   0  0  0  0  0  0  0  0  0  0  0  0
   -1.2484    7.7655   21.0464 N   0  0  0  0  0  0  0  0  0  0  0  0
   -3.9388    9.5829   23.3655 H   0  0  0  0  0  0  0  0  0  0  0  0
   -5.2853    9.0228   24.1004 H   0  0  0  0  0  0  0  0  0  0  0  0
   -4.4848   10.3009   24.7268 H   0  0  0  0  0  0  0  0  0  0  0  0
   -4.8385    8.5088   26.7054 H   0  0  0  0  0  0  0  0  0  0  0  0
   -3.5337    7.0261   28.0618 H   0  0  0  0  0  0  0  0  0  0  0  0
   -0.9203    6.2404   28.3161 H   0  0  0  0  0  0  0  0  0  0  0  0
   -0.4638    4.7765   29.6608 H   0  0  0  0  0  0  0  0  0  0  0  0
    0.8773    3.3615   31.0701 H   0  0  0  0  0  0  0  0  0  0  0  0
    1.9971    1.4822   30.0987 H   0  0  0  0  0  0  0  0  0  0  0  0
    0.5084    2.3694   26.4321 H   0  0  0  0  0  0  0  0  0  0  0  0
   -0.7127    6.7455   25.0305 H   0  0  0  0  0  0  0  0  0  0  0  0
   -1.7334    9.2976   23.1202 H   0  0  0  0  0  0  0  0  0  0  0  0
   -1.8549    4.1837   21.7636 H   0  0  0  0  0  0  0  0  0  0  0  0
   -1.1009    4.8551   19.5806 H   0  0  0  0  0  0  0  0  0  0  0  0
   -1.4899    9.1687   18.8078 H   0  0  0  0  0  0  0  0  0  0  0  0
   -0.7290    9.8424   16.6275 H   0  0  0  0  0  0  0  0  0  0  0  0
    0.6144    8.3296   15.3483 H   0  0  0  0  0  0  0  0  0  0  0  0
    0.4632    5.5506   18.2983 H   0  0  0  0  0  0  0  0  0  0  0  0
  1  2  1  0  0  0  0
  2  3  2  0  0  0  0
  3  4  1  0  0  0  0
  4  5  2  0  0  0  0
  5  6  1  0  0  0  0
  6  7  1  0  0  0  0
  7  8  2  0  0  0  0
  7  9  1  0  0  0  0
  9 10  2  0  0  0  0
 10 11  1  0  0  0  0
 11 12  2  0  0  0  0
 12 13  1  0  0  0  0
 13 14  2  0  0  0  0
  5 15  1  0  0  0  0
 15 16  2  0  0  0  0
 16 17  1  0  0  0  0
 17 18  1  0  0  0  0
 18 19  2  0  0  0  0
 19 20  1  0  0  0  0
 20 21  2  0  0  0  0
 21 22  1  0  0  0  0
 22 23  1  0  0  0  0
 23 24  2  0  0  0  0
 24 25  1  0  0  0  0
 25 26  2  0  0  0  0
 26 27  1  0  0  0  0
 27 28  2  0  0  0  0
 22 29  2  0  0  0  0
 16  2  1  0  0  0  0
 29 18  1  0  0  0  0
 14  9  1  0  0  0  0
 28 23  1  0  0  0  0
  1 30  1  0  0  0  0
  1 31  1  0  0  0  0
  1 32  1  0  0  0  0
  3 33  1  0  0  0  0
  4 34  1  0  0  0  0
  6 35  1  0  0  0  0
 10 36  1  0  0  0  0
 11 37  1  0  0  0  0
 12 38  1  0  0  0  0
 14 39  1  0  0  0  0
 15 40  1  0  0  0  0
 17 41  1  0  0  0  0
 20 42  1  0  0  0  0
 21 43  1  0  0  0  0
 24 44  1  0  0  0  0
 25 45  1  0  0  0  0
 26 46  1  0  0  0  0
 28 47  1  0  0  0  0
M  END
>  <docking-score>
-21.39

$$$$
1FPU_PRC_3
foFlexX   03222115263D 1   1.00000     0.00000     0
FlexX 4.5.0 fol007
 47 50  0  0  0  0            999 V2000
   -3.4900    8.9449   20.9044 C   0  0  0  0  0  0  0  0  0  0  0  0
   -3.4739    8.6633   22.3981 C   0  0  0  0  0  0  0  0  0  0  0  0
   -4.6024    8.9741   23.1496 C   0  0  0  0  0  0  0  0  0  0  0  0
   -4.6161    8.7269   24.5186 C   0  0  0  0  0  0  0  0  0  0  0  0
   -3.4942    8.1685   25.1221 C   0  0  0  0  0  0  0  0  0  0  0  0
   -3.4977    7.9091   26.5364 N   0  0  0  0  0  0  0  0  0  0  0  0
   -2.3853    7.3347   27.2491 C   0  0  0  0  0  0  0  0  0  0  0  0
   -1.3312    7.0295   26.6278 O   0  0  0  0  0  0  0  0  0  0  0  0
   -2.4467    7.0985   28.7121 C   0  0  0  0  0  0  0  0  0  0  0  0
   -3.3856    7.7830   29.4765 C   0  0  0  0  0  0  0  0  0  0  0  0
   -3.4406    7.5581   30.8475 C   0  0  0  0  0  0  0  0  0  0  0  0
   -2.5501    6.6512   31.4122 C   0  0  0  0  0  0  0  0  0  0  0  0
   -1.6532    6.0032   30.6540 N   0  0  0  0  0  0  0  0  0  0  0  0
   -1.5802    6.2023   29.3293 C   0  0  0  0  0  0  0  0  0  0  0  0
   -2.3618    7.8549   24.3773 C   0  0  0  0  0  0  0  0  0  0  0  0
   -2.3552    8.1050   23.0087 C   0  0  0  0  0  0  0  0  0  0  0  0
   -1.2230    7.7947   22.2457 N   0  0  0  0  0  0  0  0  0  0  0  0
   -1.2341    6.8717   21.1478 C   0  0  0  0  0  0  0  0  0  0  0  0
   -2.1700    5.9115   21.1182 N   0  0  0  0  0  0  0  0  0  0  0  0
   -2.2282    5.0212   20.1169 C   0  0  0  0  0  0  0  0  0  0  0  0
   -1.3001    5.0905   19.0831 C   0  0  0  0  0  0  0  0  0  0  0  0
   -0.3334    6.0894   19.1225 C   0  0  0  0  0  0  0  0  0  0  0  0
    0.6394    6.1685   18.0475 C   0  0  0  0  0  0  0  0  0  0  0  0
    1.3322    5.0242   17.6666 C   0  0  0  0  0  0  0  0  0  0  0  0
    2.2622    5.1040   16.6360 C   0  0  0  0  0  0  0  0  0  0  0  0
    2.4700    6.3319   16.0169 C   0  0  0  0  0  0  0  0  0  0  0  0
    1.7895    7.4217   16.4022 N   0  0  0  0  0  0  0  0  0  0  0  0
    0.8869    7.3709   17.3934 C   0  0  0  0  0  0  0  0  0  0  0  0
   -0.3328    6.9480   20.1553 N   0  0  0  0  0  0  0  0  0  0  0  0
   -2.6158    8.6702   20.5040 H   0  0  0  0  0  0  0  0  0  0  0  0
   -4.2303    8.4272   20.4756 H   0  0  0  0  0  0  0  0  0  0  0  0
   -3.6344    9.9224   20.7510 H   0  0  0  0  0  0  0  0  0  0  0  0
   -5.4038    9.3751   22.7058 H   0  0  0  0  0  0  0  0  0  0  0  0
   -5.4248    8.9486   25.0635 H   0  0  0  0  0  0  0  0  0  0  0  0
   -4.3203    8.1410   27.0556 H   0  0  0  0  0  0  0  0  0  0  0  0
   -4.0143    8.4298   29.0447 H   0  0  0  0  0  0  0  0  0  0  0  0
   -4.1076    8.0391   31.4166 H   0  0  0  0  0  0  0  0  0  0  0  0
   -2.5788    6.4799   32.3970 H   0  0  0  0  0  0  0  0  0  0  0  0
   -0.9029    5.7066   28.7857 H   0  0  0  0  0  0  0  0  0  0  0  0
   -1.5606    7.4537   24.8212 H   0  0  0  0  0  0  0  0  0  0  0  0
   -0.3591    8.2410   22.4790 H   0  0  0  0  0  0  0  0  0  0  0  0
   -2.9339    4.3127   20.1135 H   0  0  0  0  0  0  0  0  0  0  0  0
   -1.3275    4.4359   18.3276 H   0  0  0  0  0  0  0  0  0  0  0  0
    1.1633    4.1537   18.1288 H   0  0  0  0  0  0  0  0  0  0  0  0
    2.7718    4.2941   16.3456 H   0  0  0  0  0  0  0  0  0  0  0  0
    3.1359    6.4034   15.2743 H   0  0  0  0  0  0  0  0  0  0  0  0
    0.3921    8.1974   17.6620 H   0  0  0  0  0  0  0  0  0  0  0  0
  1  2  1  0  0  0  0
  2  3  2  0  0  0  0
  3  4  1  0  0  0  0
  4  5  2  0  0  0  0
  5  6  1  0  0  0  0
  6  7  1  0  0  0  0
  7  8  2  0  0  0  0
  7  9  1  0  0  0  0
  9 10  2  0  0  0  0
 10 11  1  0  0  0  0
 11 12  2  0  0  0  0
 12 13  1  0  0  0  0
 13 14  2  0  0  0  0
  5 15  1  0  0  0  0
 15 16  2  0  0  0  0
 16 17  1  0  0  0  0
 17 18  1  0  0  0  0
 18 19  2  0  0  0  0
 19 20  1  0  0  0  0
 20 21  2  0  0  0  0
 21 22  1  0  0  0  0
 22 23  1  0  0  0  0
 23 24  2  0  0  0  0
 24 25  1  0  0  0  0
 25 26  2  0  0  0  0
 26 27  1  0  0  0  0
 27 28  2  0  0  0  0
 22 29  2  0  0  0  0
 16  2  1  0  0  0  0
 29 18  1  0  0  0  0
 14  9  1  0  0  0  0
 28 23  1  0  0  0  0
  1 30  1  0  0  0  0
  1 31  1  0  0  0  0
  1 32  1  0  0  0  0
  3 33  1  0  0  0  0
  4 34  1  0  0  0  0
  6 35  1  0  0  0  0
 10 36  1  0  0  0  0
 11 37  1  0  0  0  0
 12 38  1  0  0  0  0
 14 39  1  0  0  0  0
 15 40  1  0  0  0  0
 17 41  1  0  0  0  0
 20 42  1  0  0  0  0
 21 43  1  0  0  0  0
 24 44  1  0  0  0  0
 25 45  1  0  0  0  0
 26 46  1  0  0  0  0
 28 47  1  0  0  0  0
M  END
>  <docking-score>
-21.07

$$$$
6HD6_FYH_1
foFlexX   03222115263D 1   1.00000     0.00000     0
FlexX 4.5.0 fol007
 47 49  0  0  0  0            999 V2000
   -3.0814    7.7432   24.7715 O   0  0  0  0  0  0  0  0  0  0  0  0
   -2.2219    6.8200   24.7981 C   0  0  0  0  0  0  0  0  0  0  0  0
   -1.9557    6.0612   23.6063 N   0  0  0  0  0  0  0  0  0  0  0  0
   -2.0857    6.5919   22.2757 C   0  0  0  0  0  0  0  0  0  0  0  0
   -2.4901    7.9113   22.0988 C   0  0  0  0  0  0  0  0  0  0  0  0
   -2.6185    8.4334   20.8153 C   0  0  0  0  0  0  0  0  0  0  0  0
   -2.3390    7.6214   19.7210 C   0  0  0  0  0  0  0  0  0  0  0  0
   -2.4604    8.1155   18.4712 O   0  0  0  0  0  0  0  0  0  0  0  0
   -3.6617    8.6322   17.9025 C   0  0  0  0  0  0  0  0  0  0  0  0
   -4.1177    9.7060   18.6459 F   0  0  0  0  0  0  0  0  0  0  0  0
   -4.6248    7.6421   17.9133 F   0  0  0  0  0  0  0  0  0  0  0  0
   -3.4399    9.0241   16.5945 F   0  0  0  0  0  0  0  0  0  0  0  0
   -1.9345    6.3004   19.8885 C   0  0  0  0  0  0  0  0  0  0  0  0
   -1.8085    5.7870   21.1751 C   0  0  0  0  0  0  0  0  0  0  0  0
   -1.5510    6.5058   26.0443 C   0  0  0  0  0  0  0  0  0  0  0  0
   -1.5258    7.4428   27.0722 C   0  0  0  0  0  0  0  0  0  0  0  0
   -0.8773    7.1238   28.2610 C   0  0  0  0  0  0  0  0  0  0  0  0
   -0.2596    5.8889   28.4304 C   0  0  0  0  0  0  0  0  0  0  0  0
   -0.2976    4.9667   27.3893 C   0  0  0  0  0  0  0  0  0  0  0  0
    0.3700    3.6211   27.5623 C   0  0  0  0  0  0  0  0  0  0  0  0
   -0.2013    2.8580   28.6881 N   0  3  0  0  0  0  0  0  0  0  0  0
   -1.6190    3.1896   28.8942 C   0  0  0  0  0  0  0  0  0  0  0  0
   -2.1799    2.3975   30.0645 C   0  0  0  0  0  0  0  0  0  0  0  0
   -1.4306    2.6562   31.2436 O   0  0  0  0  0  0  0  0  0  0  0  0
   -0.0541    2.3414   31.0870 C   0  0  0  0  0  0  0  0  0  0  0  0
    0.5383    3.1300   29.9295 C   0  0  0  0  0  0  0  0  0  0  0  0
   -0.9403    5.2648   26.1921 C   0  0  0  0  0  0  0  0  0  0  0  0
   -1.6636    5.1103   23.7082 H   0  0  0  0  0  0  0  0  0  0  0  0
   -2.6885    8.4844   22.8938 H   0  0  0  0  0  0  0  0  0  0  0  0
   -2.9083    9.3810   20.6812 H   0  0  0  0  0  0  0  0  0  0  0  0
   -1.7368    5.7271   19.0934 H   0  0  0  0  0  0  0  0  0  0  0  0
   -1.5187    4.8393   21.3090 H   0  0  0  0  0  0  0  0  0  0  0  0
   -1.9673    8.3328   26.9582 H   0  0  0  0  0  0  0  0  0  0  0  0
   -0.8549    7.7921   29.0047 H   0  0  0  0  0  0  0  0  0  0  0  0
    0.2048    5.6673   29.2879 H   0  0  0  0  0  0  0  0  0  0  0  0
    1.3450    3.7644   27.7319 H   0  0  0  0  0  0  0  0  0  0  0  0
    0.2521    3.0923   26.7218 H   0  0  0  0  0  0  0  0  0  0  0  0
   -0.1290    1.8823   28.4812 H   0  0  0  0  0  0  0  0  0  0  0  0
   -2.1341    2.9656   28.0668 H   0  0  0  0  0  0  0  0  0  0  0  0
   -1.7049    4.1673   29.0858 H   0  0  0  0  0  0  0  0  0  0  0  0
   -3.1325    2.6621   30.2149 H   0  0  0  0  0  0  0  0  0  0  0  0
   -2.1347    1.4211   29.8532 H   0  0  0  0  0  0  0  0  0  0  0  0
    0.0419    1.3632   30.9033 H   0  0  0  0  0  0  0  0  0  0  0  0
    0.4350    2.5722   31.9282 H   0  0  0  0  0  0  0  0  0  0  0  0
    0.4861    4.1070   30.1362 H   0  0  0  0  0  0  0  0  0  0  0  0
    1.4950    2.8658   29.8071 H   0  0  0  0  0  0  0  0  0  0  0  0
   -0.9630    4.5966   25.4484 H   0  0  0  0  0  0  0  0  0  0  0  0
  1  2  2  0  0  0  0
  2  3  1  0  0  0  0
  3  4  1  0  0  0  0
  4  5  2  0  0  0  0
  5  6  1  0  0  0  0
  6  7  2  0  0  0  0
  7  8  1  0  0  0  0
  8  9  1  0  0  0  0
  9 10  1  0  0  0  0
  9 11  1  0  0  0  0
  9 12  1  0  0  0  0
  7 13  1  0  0  0  0
 13 14  2  0  0  0  0
  2 15  1  0  0  0  0
 15 16  2  0  0  0  0
 16 17  1  0  0  0  0
 17 18  2  0  0  0  0
 18 19  1  0  0  0  0
 19 20  1  0  0  0  0
 20 21  1  0  0  0  0
 21 22  1  0  0  0  0
 22 23  1  0  0  0  0
 23 24  1  0  0  0  0
 24 25  1  0  0  0  0
 25 26  1  0  0  0  0
 19 27  2  0  0  0  0
 14  4  1  0  0  0  0
 27 15  1  0  0  0  0
 26 21  1  0  0  0  0
  3 28  1  0  0  0  0
  5 29  1  0  0  0  0
  6 30  1  0  0  0  0
 13 31  1  0  0  0  0
 14 32  1  0  0  0  0
 16 33  1  0  0  0  0
 17 34  1  0  0  0  0
 18 35  1  0  0  0  0
 20 36  1  0  0  0  0
 20 37  1  0  0  0  0
 21 38  1  0  0  0  0
 22 39  1  0  0  0  0
 22 40  1  0  0  0  0
 23 41  1  0  0  0  0
 23 42  1  0  0  0  0
 25 43  1  0  0  0  0
 25 44  1  0  0  0  0
 26 45  1  0  0  0  0
 26 46  1  0  0  0  0
 27 47  1  0  0  0  0
M  CHG  1  21   1
M  END
>  <docking-score>
-17.57

$$$$
6HD6_FYH_2
foFlexX   03222115263D 1   1.00000     0.00000     0
FlexX 4.5.0 fol007
 47 49  0  0  0  0            999 V2000
   -3.3092    7.7797   24.7663 O   0  0  0  0  0  0  0  0  0  0  0  0
   -2.4114    6.8947   24.8179 C   0  0  0  0  0  0  0  0  0  0  0  0
   -2.0340    6.1934   23.6210 N   0  0  0  0  0  0  0  0  0  0  0  0
   -2.1021    6.7673   22.3038 C   0  0  0  0  0  0  0  0  0  0  0  0
   -1.2043    6.3511   21.3258 C   0  0  0  0  0  0  0  0  0  0  0  0
   -1.2627    6.9006   20.0487 C   0  0  0  0  0  0  0  0  0  0  0  0
   -2.2248    7.8651   19.7680 C   0  0  0  0  0  0  0  0  0  0  0  0
   -2.2914    8.4062   18.5336 O   0  0  0  0  0  0  0  0  0  0  0  0
   -3.4222    8.3448   17.6669 C   0  0  0  0  0  0  0  0  0  0  0  0
   -4.5156    8.9434   18.2666 F   0  0  0  0  0  0  0  0  0  0  0  0
   -3.7223    7.0202   17.4149 F   0  0  0  0  0  0  0  0  0  0  0  0
   -3.1385    8.9735   16.4678 F   0  0  0  0  0  0  0  0  0  0  0  0
   -3.1265    8.2878   20.7401 C   0  0  0  0  0  0  0  0  0  0  0  0
   -3.0611    7.7329   22.0139 C   0  0  0  0  0  0  0  0  0  0  0  0
   -1.8087    6.5639   26.0944 C   0  0  0  0  0  0  0  0  0  0  0  0
   -1.8932    7.4620   27.1533 C   0  0  0  0  0  0  0  0  0  0  0  0
   -1.3089    7.1275   28.3708 C   0  0  0  0  0  0  0  0  0  0  0  0
   -0.6471    5.9154   28.5381 C   0  0  0  0  0  0  0  0  0  0  0  0
   -0.5750    5.0320   27.4656 C   0  0  0  0  0  0  0  0  0  0  0  0
    0.1414    3.7114   27.6360 C   0  0  0  0  0  0  0  0  0  0  0  0
   -0.4656    2.8825   28.6945 N   0  3  0  0  0  0  0  0  0  0  0  0
   -1.9074    3.1436   28.8175 C   0  0  0  0  0  0  0  0  0  0  0  0
   -2.5056    2.2844   29.9201 C   0  0  0  0  0  0  0  0  0  0  0  0
   -1.8468    2.5315   31.1545 O   0  0  0  0  0  0  0  0  0  0  0  0
   -0.4500    2.2835   31.0787 C   0  0  0  0  0  0  0  0  0  0  0  0
    0.1789    3.1400   29.9908 C   0  0  0  0  0  0  0  0  0  0  0  0
   -1.1521    5.3462   26.2394 C   0  0  0  0  0  0  0  0  0  0  0  0
   -1.7055    5.2531   23.7092 H   0  0  0  0  0  0  0  0  0  0  0  0
   -0.5170    5.6572   21.5407 H   0  0  0  0  0  0  0  0  0  0  0  0
   -0.6206    6.6055   19.3411 H   0  0  0  0  0  0  0  0  0  0  0  0
   -3.8133    8.9822   20.5254 H   0  0  0  0  0  0  0  0  0  0  0  0
   -3.7032    8.0280   22.7214 H   0  0  0  0  0  0  0  0  0  0  0  0
   -2.3672    8.3354   27.0410 H   0  0  0  0  0  0  0  0  0  0  0  0
   -1.3655    7.7678   29.1368 H   0  0  0  0  0  0  0  0  0  0  0  0
   -0.2293    5.6825   29.4162 H   0  0  0  0  0  0  0  0  0  0  0  0
    1.0958    3.8909   27.8746 H   0  0  0  0  0  0  0  0  0  0  0  0
    0.1026    3.2098   26.7717 H   0  0  0  0  0  0  0  0  0  0  0  0
   -0.3350    1.9193   28.4593 H   0  0  0  0  0  0  0  0  0  0  0  0
   -2.3570    2.9284   27.9506 H   0  0  0  0  0  0  0  0  0  0  0  0
   -2.0505    4.1088   29.0366 H   0  0  0  0  0  0  0  0  0  0  0  0
   -3.4770    2.5013   30.0162 H   0  0  0  0  0  0  0  0  0  0  0  0
   -2.4017    1.3196   29.6788 H   0  0  0  0  0  0  0  0  0  0  0  0
   -0.2972    1.3179   30.8682 H   0  0  0  0  0  0  0  0  0  0  0  0
   -0.0275    2.5039   31.9579 H   0  0  0  0  0  0  0  0  0  0  0  0
    0.0684    4.1054   30.2271 H   0  0  0  0  0  0  0  0  0  0  0  0
    1.1527    2.9228   29.9230 H   0  0  0  0  0  0  0  0  0  0  0  0
   -1.0958    4.7060   25.4733 H   0  0  0  0  0  0  0  0  0  0  0  0
  1  2  2  0  0  0  0
  2  3  1  0  0  0  0
  3  4  1  0  0  0  0
  4  5  2  0  0  0  0
  5  6  1  0  0  0  0
  6  7  2  0  0  0  0
  7  8  1  0  0  0  0
  8  9  1  0  0  0  0
  9 10  1  0  0  0  0
  9 11  1  0  0  0  0
  9 12  1  0  0  0  0
  7 13  1  0  0  0  0
 13 14  2  0  0  0  0
  2 15  1  0  0  0  0
 15 16  2  0  0  0  0
 16 17  1  0  0  0  0
 17 18  2  0  0  0  0
 18 19  1  0  0  0  0
 19 20  1  0  0  0  0
 20 21  1  0  0  0  0
 21 22  1  0  0  0  0
 22 23  1  0  0  0  0
 23 24  1  0  0  0  0
 24 25  1  0  0  0  0
 25 26  1  0  0  0  0
 19 27  2  0  0  0  0
 14  4  1  0  0  0  0
 27 15  1  0  0  0  0
 26 21  1  0  0  0  0
  3 28  1  0  0  0  0
  5 29  1  0  0  0  0
  6 30  1  0  0  0  0
 13 31  1  0  0  0  0
 14 32  1  0  0  0  0
 16 33  1  0  0  0  0
 17 34  1  0  0  0  0
 18 35  1  0  0  0  0
 20 36  1  0  0  0  0
 20 37  1  0  0  0  0
 21 38  1  0  0  0  0
 22 39  1  0  0  0  0
 22 40  1  0  0  0  0
 23 41  1  0  0  0  0
 23 42  1  0  0  0  0
 25 43  1  0  0  0  0
 25 44  1  0  0  0  0
 26 45  1  0  0  0  0
 26 46  1  0  0  0  0
 27 47  1  0  0  0  0
M  CHG  1  21   1
M  END
>  <docking-score>
-17.15

$$$$
6HD6_FYH_3
foFlexX   03222115263D 1   1.00000     0.00000     0
FlexX 4.5.0 fol007
 47 49  0  0  0  0            999 V2000
   -0.8266    6.3874   22.3875 O   0  0  0  0  0  0  0  0  0  0  0  0
   -1.8733    7.0705   22.5595 C   0  0  0  0  0  0  0  0  0  0  0  0
   -2.4967    7.1033   23.8546 N   0  0  0  0  0  0  0  0  0  0  0  0
   -1.7959    6.9671   25.0581 C   0  0  0  0  0  0  0  0  0  0  0  0
   -1.8343    7.9944   25.9957 C   0  0  0  0  0  0  0  0  0  0  0  0
   -1.1406    7.8678   27.1953 C   0  0  0  0  0  0  0  0  0  0  0  0
   -0.4136    6.7074   27.4399 C   0  0  0  0  0  0  0  0  0  0  0  0
    0.2916    6.5671   28.6461 O   0  0  0  0  0  0  0  0  0  0  0  0
   -0.2321    6.0011   29.8457 C   0  0  0  0  0  0  0  0  0  0  0  0
   -1.3292    6.7254   30.2751 F   0  0  0  0  0  0  0  0  0  0  0  0
    0.7416    6.0454   30.8245 F   0  0  0  0  0  0  0  0  0  0  0  0
   -0.5911    4.6822   29.6334 F   0  0  0  0  0  0  0  0  0  0  0  0
   -0.3690    5.6750   26.5077 C   0  0  0  0  0  0  0  0  0  0  0  0
   -1.0657    5.8100   25.3114 C   0  0  0  0  0  0  0  0  0  0  0  0
   -2.4731    7.7889   21.4086 C   0  0  0  0  0  0  0  0  0  0  0  0
   -3.3438    8.8504   21.6329 C   0  0  0  0  0  0  0  0  0  0  0  0
   -3.8968    9.5124   20.5413 C   0  0  0  0  0  0  0  0  0  0  0  0
   -3.5907    9.1270   19.2401 C   0  0  0  0  0  0  0  0  0  0  0  0
   -2.7170    8.0629   19.0391 C   0  0  0  0  0  0  0  0  0  0  0  0
   -2.3748    7.6331   17.6213 C   0  0  0  0  0  0  0  0  0  0  0  0
   -0.9190    7.7372   17.3408 N   0  3  0  0  0  0  0  0  0  0  0  0
   -0.7420    8.0232   15.9052 C   0  0  0  0  0  0  0  0  0  0  0  0
    0.1330    6.9685   15.2405 C   0  0  0  0  0  0  0  0  0  0  0  0
    1.3542    6.8324   15.9531 O   0  0  0  0  0  0  0  0  0  0  0  0
    1.1783    6.5058   17.3294 C   0  0  0  0  0  0  0  0  0  0  0  0
   -0.2817    6.4790   17.7609 C   0  0  0  0  0  0  0  0  0  0  0  0
   -2.1528    7.3869   20.1161 C   0  0  0  0  0  0  0  0  0  0  0  0
   -3.4876    7.2308   23.8978 H   0  0  0  0  0  0  0  0  0  0  0  0
   -2.3604    8.8238   25.8074 H   0  0  0  0  0  0  0  0  0  0  0  0
   -1.1645    8.6022   27.8735 H   0  0  0  0  0  0  0  0  0  0  0  0
    0.1577    4.8460   26.6957 H   0  0  0  0  0  0  0  0  0  0  0  0
   -1.0418    5.0755   24.6332 H   0  0  0  0  0  0  0  0  0  0  0  0
   -3.5690    9.1335   22.5651 H   0  0  0  0  0  0  0  0  0  0  0  0
   -4.5235   10.2765   20.6942 H   0  0  0  0  0  0  0  0  0  0  0  0
   -3.9926    9.6077   18.4608 H   0  0  0  0  0  0  0  0  0  0  0  0
   -2.8695    8.2183   16.9788 H   0  0  0  0  0  0  0  0  0  0  0  0
   -2.6602    6.6831   17.4947 H   0  0  0  0  0  0  0  0  0  0  0  0
   -0.5364    8.4916   17.8741 H   0  0  0  0  0  0  0  0  0  0  0  0
   -0.3099    8.9190   15.8014 H   0  0  0  0  0  0  0  0  0  0  0  0
   -1.6379    8.0318   15.4609 H   0  0  0  0  0  0  0  0  0  0  0  0
   -0.3486    6.0921   15.2379 H   0  0  0  0  0  0  0  0  0  0  0  0
    0.3276    7.2446   14.2993 H   0  0  0  0  0  0  0  0  0  0  0  0
    1.6598    7.1867   17.8812 H   0  0  0  0  0  0  0  0  0  0  0  0
    1.5746    5.6025   17.4943 H   0  0  0  0  0  0  0  0  0  0  0  0
   -0.7463    5.7056   17.3295 H   0  0  0  0  0  0  0  0  0  0  0  0
   -0.3375    6.3888   18.7553 H   0  0  0  0  0  0  0  0  0  0  0  0
   -1.5259    6.6229   19.9633 H   0  0  0  0  0  0  0  0  0  0  0  0
  1  2  2  0  0  0  0
  2  3  1  0  0  0  0
  3  4  1  0  0  0  0
  4  5  2  0  0  0  0
  5  6  1  0  0  0  0
  6  7  2  0  0  0  0
  7  8  1  0  0  0  0
  8  9  1  0  0  0  0
  9 10  1  0  0  0  0
  9 11  1  0  0  0  0
  9 12  1  0  0  0  0
  7 13  1  0  0  0  0
 13 14  2  0  0  0  0
  2 15  1  0  0  0  0
 15 16  2  0  0  0  0
 16 17  1  0  0  0  0
 17 18  2  0  0  0  0
 18 19  1  0  0  0  0
 19 20  1  0  0  0  0
 20 21  1  0  0  0  0
 21 22  1  0  0  0  0
 22 23  1  0  0  0  0
 23 24  1  0  0  0  0
 24 25  1  0  0  0  0
 25 26  1  0  0  0  0
 19 27  2  0  0  0  0
 14  4  1  0  0  0  0
 27 15  1  0  0  0  0
 26 21  1  0  0  0  0
  3 28  1  0  0  0  0
  5 29  1  0  0  0  0
  6 30  1  0  0  0  0
 13 31  1  0  0  0  0
 14 32  1  0  0  0  0
 16 33  1  0  0  0  0
 17 34  1  0  0  0  0
 18 35  1  0  0  0  0
 20 36  1  0  0  0  0
 20 37  1  0  0  0  0
 21 38  1  0  0  0  0
 22 39  1  0  0  0  0
 22 40  1  0  0  0  0
 23 41  1  0  0  0  0
 23 42  1  0  0  0  0
 25 43  1  0  0  0  0
 25 44  1  0  0  0  0
 26 45  1  0  0  0  0
 26 46  1  0  0  0  0
 27 47  1  0  0  0  0
M  CHG  1  21   1
M  END
>  <docking-score>
-16.97

$$$$
6HD4_FYW_1
foFlexX   03222115263D 1   1.00000     0.00000     0
FlexX 4.5.0 fol007
 50 53  0  0  0  0            999 V2000
   -4.0131    9.7460   24.9784 O   0  0  0  0  0  0  0  0  0  0  0  0
   -3.3770    8.7040   25.2904 C   0  0  0  0  0  0  0  0  0  0  0  0
   -3.1454    8.4259   26.6810 N   0  0  0  0  0  0  0  0  0  0  0  0
   -2.0038    7.7117   27.1878 C   0  0  0  0  0  0  0  0  0  0  0  0
   -0.7920    7.7819   26.5076 C   0  0  0  0  0  0  0  0  0  0  0  0
    0.3175    7.0947   26.9903 C   0  0  0  0  0  0  0  0  0  0  0  0
    0.1966    6.3421   28.1538 C   0  0  0  0  0  0  0  0  0  0  0  0
    1.2649    5.6704   28.6319 O   0  0  0  0  0  0  0  0  0  0  0  0
    1.8558    5.8686   29.9144 C   0  0  0  0  0  0  0  0  0  0  0  0
    0.9294    5.6158   30.9105 F   0  0  0  0  0  0  0  0  0  0  0  0
    2.2734    7.1812   30.0175 F   0  0  0  0  0  0  0  0  0  0  0  0
    2.9519    5.0386   30.0678 F   0  0  0  0  0  0  0  0  0  0  0  0
   -1.0115    6.2657   28.8404 C   0  0  0  0  0  0  0  0  0  0  0  0
   -2.1153    6.9561   28.3509 C   0  0  0  0  0  0  0  0  0  0  0  0
   -2.9281    7.7811   24.2198 C   0  0  0  0  0  0  0  0  0  0  0  0
   -2.4068    6.5242   24.5093 C   0  0  0  0  0  0  0  0  0  0  0  0
   -2.0059    5.7009   23.5289 N   0  0  0  0  0  0  0  0  0  0  0  0
   -2.0910    6.0555   22.2379 C   0  0  0  0  0  0  0  0  0  0  0  0
   -1.6632    5.1716   21.2398 N   0  0  0  0  0  0  0  0  0  0  0  0
   -0.6018    5.4318   20.2698 C   0  0  0  0  0  0  0  0  0  0  0  0
   -1.1959    4.7850   19.0338 C   0  0  0  0  0  0  0  0  0  0  0  0
   -1.8953    3.5400   19.5359 C   0  0  1  0  0  0  0  0  0  0  0  0
   -1.0391    2.4051   19.4723 O   0  0  0  0  0  0  0  0  0  0  0  0
   -2.2016    3.8275   20.9975 C   0  0  0  0  0  0  0  0  0  0  0  0
   -2.6040    7.3014   21.8907 C   0  0  0  0  0  0  0  0  0  0  0  0
   -2.7110    7.7195   20.5062 C   0  0  0  0  0  0  0  0  0  0  0  0
   -3.3065    6.8973   19.5558 C   0  0  0  0  0  0  0  0  0  0  0  0
   -3.3978    7.3036   18.2814 N   0  0  0  0  0  0  0  0  0  0  0  0
   -2.9219    8.4974   17.8971 C   0  0  0  0  0  0  0  0  0  0  0  0
   -2.3439    9.3091   18.7946 N   0  0  0  0  0  0  0  0  0  0  0  0
   -2.2284    8.9522   20.0809 C   0  0  0  0  0  0  0  0  0  0  0  0
   -3.0267    8.1729   22.8889 C   0  0  0  0  0  0  0  0  0  0  0  0
   -3.8232    8.7504   27.3408 H   0  0  0  0  0  0  0  0  0  0  0  0
   -0.7185    8.3261   25.6719 H   0  0  0  0  0  0  0  0  0  0  0  0
    1.1914    7.1413   26.5064 H   0  0  0  0  0  0  0  0  0  0  0  0
   -1.0852    5.7209   29.6757 H   0  0  0  0  0  0  0  0  0  0  0  0
   -2.9892    6.9095   28.8348 H   0  0  0  0  0  0  0  0  0  0  0  0
   -2.3299    6.2301   25.4620 H   0  0  0  0  0  0  0  0  0  0  0  0
    0.2581    4.9971   20.5374 H   0  0  0  0  0  0  0  0  0  0  0  0
   -0.4531    6.4120   20.1388 H   0  0  0  0  0  0  0  0  0  0  0  0
   -1.8495    5.4016   18.5949 H   0  0  0  0  0  0  0  0  0  0  0  0
   -0.4757    4.5446   18.3831 H   0  0  0  0  0  0  0  0  0  0  0  0
   -2.7382    3.3766   19.0232 H   0  0  0  0  0  0  0  0  0  0  0  0
   -1.2254    1.8031   20.2487 H   0  0  0  0  0  0  0  0  0  0  0  0
   -3.1880    3.8091   21.1603 H   0  0  0  0  0  0  0  0  0  0  0  0
   -1.7535    3.1572   21.5891 H   0  0  0  0  0  0  0  0  0  0  0  0
   -3.6665    6.0033   19.8228 H   0  0  0  0  0  0  0  0  0  0  0  0
   -2.9981    8.7820   16.9415 H   0  0  0  0  0  0  0  0  0  0  0  0
   -1.7951    9.5722   20.7349 H   0  0  0  0  0  0  0  0  0  0  0  0
   -3.3973    9.0711   22.6524 H   0  0  0  0  0  0  0  0  0  0  0  0
  1  2  2  0  0  0  0
  2  3  1  0  0  0  0
  3  4  1  0  0  0  0
  4  5  2  0  0  0  0
  5  6  1  0  0  0  0
  6  7  2  0  0  0  0
  7  8  1  0  0  0  0
  8  9  1  0  0  0  0
  9 10  1  0  0  0  0
  9 11  1  0  0  0  0
  9 12  1  0  0  0  0
  7 13  1  0  0  0  0
 13 14  2  0  0  0  0
  2 15  1  0  0  0  0
 15 16  2  0  0  0  0
 16 17  1  0  0  0  0
 17 18  2  0  0  0  0
 18 19  1  0  0  0  0
 19 20  1  0  0  0  0
 20 21  1  0  0  0  0
 21 22  1  0  0  0  0
 22 23  1  0  0  0  0
 22 24  1  0  0  0  0
 18 25  1  0  0  0  0
 25 26  1  0  0  0  0
 26 27  2  0  0  0  0
 27 28  1  0  0  0  0
 28 29  2  0  0  0  0
 29 30  1  0  0  0  0
 30 31  2  0  0  0  0
 25 32  2  0  0  0  0
 14  4  1  0  0  0  0
 32 15  1  0  0  0  0
 24 19  1  0  0  0  0
 31 26  1  0  0  0  0
  3 33  1  0  0  0  0
  5 34  1  0  0  0  0
  6 35  1  0  0  0  0
 13 36  1  0  0  0  0
 14 37  1  0  0  0  0
 16 38  1  0  0  0  0
 20 39  1  0  0  0  0
 20 40  1  0  0  0  0
 21 41  1  0  0  0  0
 21 42  1  0  0  0  0
 22 43  1  0  0  0  0
 23 44  1  0  0  0  0
 24 45  1  0  0  0  0
 24 46  1  0  0  0  0
 27 47  1  0  0  0  0
 29 48  1  0  0  0  0
 31 49  1  0  0  0  0
 32 50  1  0  0  0  0
M  END
>  <docking-score>
-20.99

$$$$
6HD4_FYW_2
foFlexX   03222115263D 1   1.00000     0.00000     0
FlexX 4.5.0 fol007
 50 53  0  0  0  0            999 V2000
   -4.0131    9.7460   24.9784 O   0  0  0  0  0  0  0  0  0  0  0  0
   -3.3770    8.7040   25.2904 C   0  0  0  0  0  0  0  0  0  0  0  0
   -3.1454    8.4259   26.6810 N   0  0  0  0  0  0  0  0  0  0  0  0
   -2.0038    7.7117   27.1878 C   0  0  0  0  0  0  0  0  0  0  0  0
   -0.7920    7.7819   26.5076 C   0  0  0  0  0  0  0  0  0  0  0  0
    0.3175    7.0947   26.9903 C   0  0  0  0  0  0  0  0  0  0  0  0
    0.1966    6.3421   28.1538 C   0  0  0  0  0  0  0  0  0  0  0  0
    1.2649    5.6704   28.6319 O   0  0  0  0  0  0  0  0  0  0  0  0
    1.3337    4.2585   28.8188 C   0  0  0  0  0  0  0  0  0  0  0  0
    1.1426    3.6079   27.6128 F   0  0  0  0  0  0  0  0  0  0  0  0
    0.3379    3.8733   29.6952 F   0  0  0  0  0  0  0  0  0  0  0  0
    2.5597    3.9077   29.3552 F   0  0  0  0  0  0  0  0  0  0  0  0
   -1.0115    6.2657   28.8404 C   0  0  0  0  0  0  0  0  0  0  0  0
   -2.1153    6.9561   28.3509 C   0  0  0  0  0  0  0  0  0  0  0  0
   -2.9281    7.7811   24.2198 C   0  0  0  0  0  0  0  0  0  0  0  0
   -2.4068    6.5242   24.5093 C   0  0  0  0  0  0  0  0  0  0  0  0
   -2.0059    5.7009   23.5289 N   0  0  0  0  0  0  0  0  0  0  0  0
   -2.0910    6.0555   22.2379 C   0  0  0  0  0  0  0  0  0  0  0  0
   -1.6632    5.1716   21.2398 N   0  0  0  0  0  0  0  0  0  0  0  0
   -0.6018    5.4318   20.2698 C   0  0  0  0  0  0  0  0  0  0  0  0
   -1.1959    4.7850   19.0338 C   0  0  0  0  0  0  0  0  0  0  0  0
   -1.8953    3.5400   19.5359 C   0  0  1  0  0  0  0  0  0  0  0  0
   -1.0391    2.4051   19.4723 O   0  0  0  0  0  0  0  0  0  0  0  0
   -2.2016    3.8275   20.9975 C   0  0  0  0  0  0  0  0  0  0  0  0
   -2.6040    7.3014   21.8907 C   0  0  0  0  0  0  0  0  0  0  0  0
   -2.7110    7.7195   20.5062 C   0  0  0  0  0  0  0  0  0  0  0  0
   -3.3065    6.8973   19.5558 C   0  0  0  0  0  0  0  0  0  0  0  0
   -3.3978    7.3036   18.2814 N   0  0  0  0  0  0  0  0  0  0  0  0
   -2.9219    8.4974   17.8971 C   0  0  0  0  0  0  0  0  0  0  0  0
   -2.3439    9.3091   18.7946 N   0  0  0  0  0  0  0  0  0  0  0  0
   -2.2284    8.9522   20.0809 C   0  0  0  0  0  0  0  0  0  0  0  0
   -3.0267    8.1729   22.8889 C   0  0  0  0  0  0  0  0  0  0  0  0
   -3.8232    8.7504   27.3408 H   0  0  0  0  0  0  0  0  0  0  0  0
   -0.7185    8.3261   25.6719 H   0  0  0  0  0  0  0  0  0  0  0  0
    1.1914    7.1413   26.5064 H   0  0  0  0  0  0  0  0  0  0  0  0
   -1.0852    5.7209   29.6757 H   0  0  0  0  0  0  0  0  0  0  0  0
   -2.9892    6.9095   28.8348 H   0  0  0  0  0  0  0  0  0  0  0  0
   -2.3299    6.2301   25.4620 H   0  0  0  0  0  0  0  0  0  0  0  0
    0.2581    4.9971   20.5374 H   0  0  0  0  0  0  0  0  0  0  0  0
   -0.4531    6.4120   20.1388 H   0  0  0  0  0  0  0  0  0  0  0  0
   -1.8495    5.4016   18.5949 H   0  0  0  0  0  0  0  0  0  0  0  0
   -0.4757    4.5446   18.3831 H   0  0  0  0  0  0  0  0  0  0  0  0
   -2.7382    3.3766   19.0232 H   0  0  0  0  0  0  0  0  0  0  0  0
   -1.2254    1.8031   20.2487 H   0  0  0  0  0  0  0  0  0  0  0  0
   -3.1880    3.8091   21.1603 H   0  0  0  0  0  0  0  0  0  0  0  0
   -1.7535    3.1572   21.5891 H   0  0  0  0  0  0  0  0  0  0  0  0
   -3.6665    6.0033   19.8228 H   0  0  0  0  0  0  0  0  0  0  0  0
   -2.9981    8.7820   16.9415 H   0  0  0  0  0  0  0  0  0  0  0  0
   -1.7951    9.5722   20.7349 H   0  0  0  0  0  0  0  0  0  0  0  0
   -3.3973    9.0711   22.6524 H   0  0  0  0  0  0  0  0  0  0  0  0
  1  2  2  0  0  0  0
  2  3  1  0  0  0  0
  3  4  1  0  0  0  0
  4  5  2  0  0  0  0
  5  6  1  0  0  0  0
  6  7  2  0  0  0  0
  7  8  1  0  0  0  0
  8  9  1  0  0  0  0
  9 10  1  0  0  0  0
  9 11  1  0  0  0  0
  9 12  1  0  0  0  0
  7 13  1  0  0  0  0
 13 14  2  0  0  0  0
  2 15  1  0  0  0  0
 15 16  2  0  0  0  0
 16 17  1  0  0  0  0
 17 18  2  0  0  0  0
 18 19  1  0  0  0  0
 19 20  1  0  0  0  0
 20 21  1  0  0  0  0
 21 22  1  0  0  0  0
 22 23  1  0  0  0  0
 22 24  1  0  0  0  0
 18 25  1  0  0  0  0
 25 26  1  0  0  0  0
 26 27  2  0  0  0  0
 27 28  1  0  0  0  0
 28 29  2  0  0  0  0
 29 30  1  0  0  0  0
 30 31  2  0  0  0  0
 25 32  2  0  0  0  0
 14  4  1  0  0  0  0
 32 15  1  0  0  0  0
 24 19  1  0  0  0  0
 31 26  1  0  0  0  0
  3 33  1  0  0  0  0
  5 34  1  0  0  0  0
  6 35  1  0  0  0  0
 13 36  1  0  0  0  0
 14 37  1  0  0  0  0
 16 38  1  0  0  0  0
 20 39  1  0  0  0  0
 20 40  1  0  0  0  0
 21 41  1  0  0  0  0
 21 42  1  0  0  0  0
 22 43  1  0  0  0  0
 23 44  1  0  0  0  0
 24 45  1  0  0  0  0
 24 46  1  0  0  0  0
 27 47  1  0  0  0  0
 29 48  1  0  0  0  0
 31 49  1  0  0  0  0
 32 50  1  0  0  0  0
M  END
>  <docking-score>
-19.79

$$$$
6HD4_FYW_3
foFlexX   03222115263D 1   1.00000     0.00000     0
FlexX 4.5.0 fol007
 50 53  0  0  0  0            999 V2000
   -4.0183   10.0518   24.9496 O   0  0  0  0  0  0  0  0  0  0  0  0
   -3.1872    9.1679   24.6082 C   0  0  0  0  0  0  0  0  0  0  0  0
   -2.7193    9.1471   23.2497 N   0  0  0  0  0  0  0  0  0  0  0  0
   -2.3113    7.9585   22.5489 C   0  0  0  0  0  0  0  0  0  0  0  0
   -2.9777    7.5834   21.3866 C   0  0  0  0  0  0  0  0  0  0  0  0
   -2.5900    6.4356   20.7020 C   0  0  0  0  0  0  0  0  0  0  0  0
   -1.5347    5.6752   21.1947 C   0  0  0  0  0  0  0  0  0  0  0  0
   -1.1495    4.5595   20.5406 O   0  0  0  0  0  0  0  0  0  0  0  0
   -1.9763    3.4251   20.2897 C   0  0  0  0  0  0  0  0  0  0  0  0
   -3.0771    3.7943   19.5373 F   0  0  0  0  0  0  0  0  0  0  0  0
   -2.4129    2.9132   21.4961 F   0  0  0  0  0  0  0  0  0  0  0  0
   -1.2566    2.4482   19.6253 F   0  0  0  0  0  0  0  0  0  0  0  0
   -0.8628    6.0424   22.3568 C   0  0  0  0  0  0  0  0  0  0  0  0
   -1.2568    7.1915   23.0344 C   0  0  0  0  0  0  0  0  0  0  0  0
   -2.6998    8.2311   25.6028 C   0  0  0  0  0  0  0  0  0  0  0  0
   -2.7039    6.8581   25.3779 C   0  0  0  0  0  0  0  0  0  0  0  0
   -2.2488    6.0052   26.3080 N   0  0  0  0  0  0  0  0  0  0  0  0
   -1.7749    6.4401   27.4852 C   0  0  0  0  0  0  0  0  0  0  0  0
   -1.3078    5.5223   28.4336 N   0  0  0  0  0  0  0  0  0  0  0  0
   -1.8096    5.3521   29.7994 C   0  0  0  0  0  0  0  0  0  0  0  0
   -1.6567    3.8688   30.0700 C   0  0  0  0  0  0  0  0  0  0  0  0
   -0.6355    3.3623   29.0685 C   0  0  1  0  0  0  0  0  0  0  0  0
   -1.2659    2.4021   28.2567 O   0  0  0  0  0  0  0  0  0  0  0  0
   -0.2105    4.5725   28.2595 C   0  0  0  0  0  0  0  0  0  0  0  0
   -1.7478    7.8031   27.7639 C   0  0  0  0  0  0  0  0  0  0  0  0
   -1.2431    8.3103   29.0253 C   0  0  0  0  0  0  0  0  0  0  0  0
   -0.0433    9.0109   29.0848 C   0  0  0  0  0  0  0  0  0  0  0  0
    0.4046    9.4737   30.2607 N   0  0  0  0  0  0  0  0  0  0  0  0
   -0.2846    9.2736   31.3939 C   0  0  0  0  0  0  0  0  0  0  0  0
   -1.4448    8.6017   31.3632 N   0  0  0  0  0  0  0  0  0  0  0  0
   -1.9378    8.1192   30.2145 C   0  0  0  0  0  0  0  0  0  0  0  0
   -2.2137    8.7077   26.8157 C   0  0  0  0  0  0  0  0  0  0  0  0
   -2.6742   10.0169   22.7585 H   0  0  0  0  0  0  0  0  0  0  0  0
   -3.7352    8.1386   21.0431 H   0  0  0  0  0  0  0  0  0  0  0  0
   -3.0645    6.1607   19.8658 H   0  0  0  0  0  0  0  0  0  0  0  0
   -0.1057    5.4868   22.7006 H   0  0  0  0  0  0  0  0  0  0  0  0
   -0.7822    7.4663   23.8706 H   0  0  0  0  0  0  0  0  0  0  0  0
   -3.0511    6.5020   24.5104 H   0  0  0  0  0  0  0  0  0  0  0  0
   -2.7691    5.6269   29.8614 H   0  0  0  0  0  0  0  0  0  0  0  0
   -1.2669    5.8883   30.4459 H   0  0  0  0  0  0  0  0  0  0  0  0
   -1.3318    3.7178   31.0036 H   0  0  0  0  0  0  0  0  0  0  0  0
   -2.5309    3.4005   29.9415 H   0  0  0  0  0  0  0  0  0  0  0  0
    0.1501    2.9618   29.5402 H   0  0  0  0  0  0  0  0  0  0  0  0
   -0.7523    1.5449   28.2942 H   0  0  0  0  0  0  0  0  0  0  0  0
    0.6457    4.9513   28.6109 H   0  0  0  0  0  0  0  0  0  0  0  0
   -0.0981    4.3331   27.2951 H   0  0  0  0  0  0  0  0  0  0  0  0
    0.4852    9.1695   28.2508 H   0  0  0  0  0  0  0  0  0  0  0  0
    0.0667    9.6254   32.2616 H   0  0  0  0  0  0  0  0  0  0  0  0
   -2.8053    7.6218   30.2125 H   0  0  0  0  0  0  0  0  0  0  0  0
   -2.1995    9.6897   27.0039 H   0  0  0  0  0  0  0  0  0  0  0  0
  1  2  2  0  0  0  0
  2  3  1  0  0  0  0
  3  4  1  0  0  0  0
  4  5  2  0  0  0  0
  5  6  1  0  0  0  0
  6  7  2  0  0  0  0
  7  8  1  0  0  0  0
  8  9  1  0  0  0  0
  9 10  1  0  0  0  0
  9 11  1  0  0  0  0
  9 12  1  0  0  0  0
  7 13  1  0  0  0  0
 13 14  2  0  0  0  0
  2 15  1  0  0  0  0
 15 16  2  0  0  0  0
 16 17  1  0  0  0  0
 17 18  2  0  0  0  0
 18 19  1  0  0  0  0
 19 20  1  0  0  0  0
 20 21  1  0  0  0  0
 21 22  1  0  0  0  0
 22 23  1  0  0  0  0
 22 24  1  0  0  0  0
 18 25  1  0  0  0  0
 25 26  1  0  0  0  0
 26 27  2  0  0  0  0
 27 28  1  0  0  0  0
 28 29  2  0  0  0  0
 29 30  1  0  0  0  0
 30 31  2  0  0  0  0
 25 32  2  0  0  0  0
 14  4  1  0  0  0  0
 32 15  1  0  0  0  0
 24 19  1  0  0  0  0
 31 26  1  0  0  0  0
  3 33  1  0  0  0  0
  5 34  1  0  0  0  0
  6 35  1  0  0  0  0
 13 36  1  0  0  0  0
 14 37  1  0  0  0  0
 16 38  1  0  0  0  0
 20 39  1  0  0  0  0
 20 40  1  0  0  0  0
 21 41  1  0  0  0  0
 21 42  1  0  0  0  0
 22 43  1  0  0  0  0
 23 44  1  0  0  0  0
 24 45  1  0  0  0  0
 24 46  1  0  0  0  0
 27 47  1  0  0  0  0
 29 48  1  0  0  0  0
 31 49  1  0  0  0  0
 32 50  1  0  0  0  0
M  END
>  <docking-score>
-15.54

$$$$
2QOH_P3Y_1
foFlexX   03222115263D 1   1.00000     0.00000     0
FlexX 4.5.0 fol007
 48 51  0  0  0  0            999 V2000
   -1.8046    9.7754   17.7498 C   0  0  0  0  0  0  0  0  0  0  0  0
   -1.8011    9.2244   19.0622 O   0  0  0  0  0  0  0  0  0  0  0  0
   -1.7023    7.9071   19.3427 C   0  0  0  0  0  0  0  0  0  0  0  0
   -0.9953    7.0907   18.4662 C   0  0  0  0  0  0  0  0  0  0  0  0
   -0.8754    5.7294   18.7270 C   0  0  0  0  0  0  0  0  0  0  0  0
   -1.4629    5.1844   19.8640 C   0  0  0  0  0  0  0  0  0  0  0  0
   -2.1698    6.0007   20.7413 C   0  0  0  0  0  0  0  0  0  0  0  0
   -2.2900    7.3619   20.4803 C   0  0  0  0  0  0  0  0  0  0  0  0
   -3.0277    8.2133   21.3948 C   0  0  0  0  0  0  0  0  0  0  0  0
   -3.8629    9.2247   21.0222 C   0  0  0  0  0  0  0  0  0  0  0  0
   -4.3556    9.7754   22.1680 N   0  0  0  0  0  0  0  0  0  0  0  0
   -3.8342    9.1199   23.2579 C   0  0  0  0  0  0  0  0  0  0  0  0
   -3.9782    9.2504   24.5868 N   0  0  0  0  0  0  0  0  0  0  0  0
   -3.3395    8.4521   25.4574 C   0  0  0  0  0  0  0  0  0  0  0  0
   -2.4870    7.4386   25.0276 C   0  0  0  0  0  0  0  0  0  0  0  0
   -1.7810    6.5537   25.9336 C   0  0  0  0  0  0  0  0  0  0  0  0
   -1.4606    5.2497   25.5708 C   0  0  0  0  0  0  0  0  0  0  0  0
   -0.8068    4.4453   26.4223 N   0  0  0  0  0  0  0  0  0  0  0  0
   -0.4417    4.8670   27.6421 C   0  0  0  0  0  0  0  0  0  0  0  0
   -0.7366    6.1615   28.0563 C   0  0  0  0  0  0  0  0  0  0  0  0
   -0.3433    6.6464   29.3966 C   0  0  0  0  0  0  0  0  0  0  0  0
    0.8808    6.6576   29.7030 O   0  0  0  0  0  0  0  0  0  0  0  0
   -1.3185    7.1127   30.3512 N   0  0  0  0  0  0  0  0  0  0  0  0
   -2.5579    7.7218   29.8620 C   0  0  0  0  0  0  0  0  0  0  0  0
   -1.1490    6.8388   31.7826 C   0  0  0  0  0  0  0  0  0  0  0  0
   -1.4139    7.0158   27.1929 C   0  0  0  0  0  0  0  0  0  0  0  0
   -2.3137    7.2760   23.6594 C   0  0  0  0  0  0  0  0  0  0  0  0
   -3.0002    8.1307   22.8064 C   0  0  0  0  0  0  0  0  0  0  0  0
   -2.5777    9.4050   17.2349 H   0  0  0  0  0  0  0  0  0  0  0  0
   -1.8877   10.7703   17.8062 H   0  0  0  0  0  0  0  0  0  0  0  0
   -0.9509    9.5379   17.2863 H   0  0  0  0  0  0  0  0  0  0  0  0
   -0.5732    7.4823   17.6486 H   0  0  0  0  0  0  0  0  0  0  0  0
   -0.3669    5.1425   18.0969 H   0  0  0  0  0  0  0  0  0  0  0  0
   -1.3770    4.2058   20.0509 H   0  0  0  0  0  0  0  0  0  0  0  0
   -2.5914    5.6090   21.5592 H   0  0  0  0  0  0  0  0  0  0  0  0
   -4.0738    9.5084   20.0868 H   0  0  0  0  0  0  0  0  0  0  0  0
   -4.9986   10.5402   22.2092 H   0  0  0  0  0  0  0  0  0  0  0  0
   -3.4795    8.5889   26.4381 H   0  0  0  0  0  0  0  0  0  0  0  0
   -1.7201    4.9087   24.6672 H   0  0  0  0  0  0  0  0  0  0  0  0
    0.0454    4.2471   28.2572 H   0  0  0  0  0  0  0  0  0  0  0  0
   -3.0546    7.0610   29.2993 H   0  0  0  0  0  0  0  0  0  0  0  0
   -3.1263    7.9914   30.6394 H   0  0  0  0  0  0  0  0  0  0  0  0
   -2.3389    8.5287   29.3135 H   0  0  0  0  0  0  0  0  0  0  0  0
   -0.2925    7.2454   32.1007 H   0  0  0  0  0  0  0  0  0  0  0  0
   -1.9144    7.2339   32.2906 H   0  0  0  0  0  0  0  0  0  0  0  0
   -1.1245    5.8503   31.9322 H   0  0  0  0  0  0  0  0  0  0  0  0
   -1.6340    7.9500   27.4738 H   0  0  0  0  0  0  0  0  0  0  0  0
   -1.7118    6.5637   23.2984 H   0  0  0  0  0  0  0  0  0  0  0  0
  1  2  1  0  0  0  0
  2  3  1  0  0  0  0
  3  4  2  0  0  0  0
  4  5  1  0  0  0  0
  5  6  2  0  0  0  0
  6  7  1  0  0  0  0
  7  8  2  0  0  0  0
  8  9  1  0  0  0  0
  9 10  2  0  0  0  0
 10 11  1  0  0  0  0
 11 12  1  0  0  0  0
 12 13  2  0  0  0  0
 13 14  1  0  0  0  0
 14 15  2  0  0  0  0
 15 16  1  0  0  0  0
 16 17  2  0  0  0  0
 17 18  1  0  0  0  0
 18 19  2  0  0  0  0
 19 20  1  0  0  0  0
 20 21  1  0  0  0  0
 21 22  2  0  0  0  0
 21 23  1  0  0  0  0
 23 24  1  0  0  0  0
 23 25  1  0  0  0  0
 20 26  2  0  0  0  0
 15 27  1  0  0  0  0
 27 28  2  0  0  0  0
  8  3  1  0  0  0  0
 28  9  1  0  0  0  0
 28 12  1  0  0  0  0
 26 16  1  0  0  0  0
  1 29  1  0  0  0  0
  1 30  1  0  0  0  0
  1 31  1  0  0  0  0
  4 32  1  0  0  0  0
  5 33  1  0  0  0  0
  6 34  1  0  0  0  0
  7 35  1  0  0  0  0
 10 36  1  0  0  0  0
 11 37  1  0  0  0  0
 14 38  1  0  0  0  0
 17 39  1  0  0  0  0
 19 40  1  0  0  0  0
 24 41  1  0  0  0  0
 24 42  1  0  0  0  0
 24 43  1  0  0  0  0
 25 44  1  0  0  0  0
 25 45  1  0  0  0  0
 25 46  1  0  0  0  0
 26 47  1  0  0  0  0
 27 48  1  0  0  0  0
M  END
>  <docking-score>
-38.01

$$$$
2QOH_P3Y_2
foFlexX   03222115263D 1   1.00000     0.00000     0
FlexX 4.5.0 fol007
 48 51  0  0  0  0            999 V2000
   -1.8126    9.7573   17.7378 C   0  0  0  0  0  0  0  0  0  0  0  0
   -1.8072    9.2115   19.0524 O   0  0  0  0  0  0  0  0  0  0  0  0
   -1.7110    7.8952   19.3378 C   0  0  0  0  0  0  0  0  0  0  0  0
   -1.0083    7.0735   18.4628 C   0  0  0  0  0  0  0  0  0  0  0  0
   -0.8911    5.7129   18.7287 C   0  0  0  0  0  0  0  0  0  0  0  0
   -1.4770    5.1740   19.8694 C   0  0  0  0  0  0  0  0  0  0  0  0
   -2.1797    5.9955   20.7452 C   0  0  0  0  0  0  0  0  0  0  0  0
   -2.2971    7.3560   20.4791 C   0  0  0  0  0  0  0  0  0  0  0  0
   -3.0305    8.2128   21.3920 C   0  0  0  0  0  0  0  0  0  0  0  0
   -3.8640    9.2248   21.0175 C   0  0  0  0  0  0  0  0  0  0  0  0
   -4.3525    9.7814   22.1623 N   0  0  0  0  0  0  0  0  0  0  0  0
   -3.8300    9.1289   23.2535 C   0  0  0  0  0  0  0  0  0  0  0  0
   -3.9703    9.2650   24.5822 N   0  0  0  0  0  0  0  0  0  0  0  0
   -3.3314    8.4686   25.4544 C   0  0  0  0  0  0  0  0  0  0  0  0
   -2.4825    7.4513   25.0265 C   0  0  0  0  0  0  0  0  0  0  0  0
   -1.7764    6.5682   25.9342 C   0  0  0  0  0  0  0  0  0  0  0  0
   -1.4603    5.2619   25.5758 C   0  0  0  0  0  0  0  0  0  0  0  0
   -0.8063    4.4593   26.4289 N   0  0  0  0  0  0  0  0  0  0  0  0
   -0.4370    4.8850   27.6461 C   0  0  0  0  0  0  0  0  0  0  0  0
   -0.7277    6.1818   28.0559 C   0  0  0  0  0  0  0  0  0  0  0  0
   -0.3298    6.6711   29.3932 C   0  0  0  0  0  0  0  0  0  0  0  0
    0.8951    6.6804   29.6965 O   0  0  0  0  0  0  0  0  0  0  0  0
   -1.3015    7.1437   30.3484 N   0  0  0  0  0  0  0  0  0  0  0  0
   -0.8404    7.6249   31.6531 C   0  0  0  0  0  0  0  0  0  0  0  0
   -2.7102    7.2919   29.9659 C   0  0  0  0  0  0  0  0  0  0  0  0
   -1.4050    7.0344   27.1907 C   0  0  0  0  0  0  0  0  0  0  0  0
   -2.3131    7.2828   23.6585 C   0  0  0  0  0  0  0  0  0  0  0  0
   -2.9996    8.1358   22.8039 C   0  0  0  0  0  0  0  0  0  0  0  0
   -2.5879    9.3868   17.2262 H   0  0  0  0  0  0  0  0  0  0  0  0
   -1.8930   10.7527   17.7904 H   0  0  0  0  0  0  0  0  0  0  0  0
   -0.9607    9.5158   17.2731 H   0  0  0  0  0  0  0  0  0  0  0  0
   -0.5872    7.4607   17.6426 H   0  0  0  0  0  0  0  0  0  0  0  0
   -0.3856    5.1223   18.0997 H   0  0  0  0  0  0  0  0  0  0  0  0
   -1.3932    4.1959   20.0600 H   0  0  0  0  0  0  0  0  0  0  0  0
   -2.6002    5.6082   21.5657 H   0  0  0  0  0  0  0  0  0  0  0  0
   -4.0766    9.5053   20.0815 H   0  0  0  0  0  0  0  0  0  0  0  0
   -4.9935   10.5479   22.2021 H   0  0  0  0  0  0  0  0  0  0  0  0
   -3.4686    8.6096   26.4348 H   0  0  0  0  0  0  0  0  0  0  0  0
   -1.7228    4.9180   24.6743 H   0  0  0  0  0  0  0  0  0  0  0  0
    0.0501    4.2663   28.2625 H   0  0  0  0  0  0  0  0  0  0  0  0
   -0.2206    8.3988   31.5228 H   0  0  0  0  0  0  0  0  0  0  0  0
   -1.6268    7.9158   32.1980 H   0  0  0  0  0  0  0  0  0  0  0  0
   -0.3591    6.8888   32.1289 H   0  0  0  0  0  0  0  0  0  0  0  0
   -3.0725    6.4054   29.6779 H   0  0  0  0  0  0  0  0  0  0  0  0
   -3.2345    7.6280   30.7483 H   0  0  0  0  0  0  0  0  0  0  0  0
   -2.7838    7.9433   29.2108 H   0  0  0  0  0  0  0  0  0  0  0  0
   -1.6221    7.9702   27.4685 H   0  0  0  0  0  0  0  0  0  0  0  0
   -1.7138    6.5675   23.2989 H   0  0  0  0  0  0  0  0  0  0  0  0
  1  2  1  0  0  0  0
  2  3  1  0  0  0  0
  3  4  2  0  0  0  0
  4  5  1  0  0  0  0
  5  6  2  0  0  0  0
  6  7  1  0  0  0  0
  7  8  2  0  0  0  0
  8  9  1  0  0  0  0
  9 10  2  0  0  0  0
 10 11  1  0  0  0  0
 11 12  1  0  0  0  0
 12 13  2  0  0  0  0
 13 14  1  0  0  0  0
 14 15  2  0  0  0  0
 15 16  1  0  0  0  0
 16 17  2  0  0  0  0
 17 18  1  0  0  0  0
 18 19  2  0  0  0  0
 19 20  1  0  0  0  0
 20 21  1  0  0  0  0
 21 22  2  0  0  0  0
 21 23  1  0  0  0  0
 23 24  1  0  0  0  0
 23 25  1  0  0  0  0
 20 26  2  0  0  0  0
 15 27  1  0  0  0  0
 27 28  2  0  0  0  0
  8  3  1  0  0  0  0
 28  9  1  0  0  0  0
 28 12  1  0  0  0  0
 26 16  1  0  0  0  0
  1 29  1  0  0  0  0
  1 30  1  0  0  0  0
  1 31  1  0  0  0  0
  4 32  1  0  0  0  0
  5 33  1  0  0  0  0
  6 34  1  0  0  0  0
  7 35  1  0  0  0  0
 10 36  1  0  0  0  0
 11 37  1  0  0  0  0
 14 38  1  0  0  0  0
 17 39  1  0  0  0  0
 19 40  1  0  0  0  0
 24 41  1  0  0  0  0
 24 42  1  0  0  0  0
 24 43  1  0  0  0  0
 25 44  1  0  0  0  0
 25 45  1  0  0  0  0
 25 46  1  0  0  0  0
 26 47  1  0  0  0  0
 27 48  1  0  0  0  0
M  END
>  <docking-score>
-38.01

$$$$
2QOH_P3Y_3
foFlexX   03222115263D 1   1.00000     0.00000     0
FlexX 4.5.0 fol007
 48 51  0  0  0  0            999 V2000
   -1.5600   10.1032   17.9791 C   0  0  0  0  0  0  0  0  0  0  0  0
   -2.0896    9.4506   19.1279 O   0  0  0  0  0  0  0  0  0  0  0  0
   -1.9877    8.1270   19.3755 C   0  0  0  0  0  0  0  0  0  0  0  0
   -1.3212    7.3264   18.4539 C   0  0  0  0  0  0  0  0  0  0  0  0
   -1.1992    5.9590   18.6800 C   0  0  0  0  0  0  0  0  0  0  0  0
   -1.7440    5.3923   19.8276 C   0  0  0  0  0  0  0  0  0  0  0  0
   -2.4103    6.1928   20.7500 C   0  0  0  0  0  0  0  0  0  0  0  0
   -2.5327    7.5600   20.5237 C   0  0  0  0  0  0  0  0  0  0  0  0
   -3.2282    8.3949   21.4853 C   0  0  0  0  0  0  0  0  0  0  0  0
   -4.0715    9.4185   21.1684 C   0  0  0  0  0  0  0  0  0  0  0  0
   -4.5147    9.9466   22.3447 N   0  0  0  0  0  0  0  0  0  0  0  0
   -3.9541    9.2646   23.3984 C   0  0  0  0  0  0  0  0  0  0  0  0
   -4.0441    9.3667   24.7345 N   0  0  0  0  0  0  0  0  0  0  0  0
   -3.3760    8.5463   25.5613 C   0  0  0  0  0  0  0  0  0  0  0  0
   -2.5474    7.5381   25.0758 C   0  0  0  0  0  0  0  0  0  0  0  0
   -1.8111    6.6299   25.9333 C   0  0  0  0  0  0  0  0  0  0  0  0
   -1.5134    5.3325   25.5298 C   0  0  0  0  0  0  0  0  0  0  0  0
   -0.8308    4.5063   26.3367 N   0  0  0  0  0  0  0  0  0  0  0  0
   -0.4147    4.8993   27.5498 C   0  0  0  0  0  0  0  0  0  0  0  0
   -0.6851    6.1859   28.0035 C   0  0  0  0  0  0  0  0  0  0  0  0
   -0.2357    6.6393   29.3371 C   0  0  0  0  0  0  0  0  0  0  0  0
    0.5441    7.6288   29.4109 O   0  0  0  0  0  0  0  0  0  0  0  0
   -0.6725    5.9877   30.5472 N   0  0  0  0  0  0  0  0  0  0  0  0
   -1.5777    4.8399   30.4500 C   0  0  0  0  0  0  0  0  0  0  0  0
   -0.0970    6.3625   31.8438 C   0  0  0  0  0  0  0  0  0  0  0  0
   -1.3912    7.0624   27.1866 C   0  0  0  0  0  0  0  0  0  0  0  0
   -2.4299    7.4046   23.6985 C   0  0  0  0  0  0  0  0  0  0  0  0
   -3.1448    8.2813   22.8925 C   0  0  0  0  0  0  0  0  0  0  0  0
   -1.9733    9.7154   17.1552 H   0  0  0  0  0  0  0  0  0  0  0  0
   -1.7654   11.0807   18.0266 H   0  0  0  0  0  0  0  0  0  0  0  0
   -0.5691    9.9719   17.9484 H   0  0  0  0  0  0  0  0  0  0  0  0
   -0.9297    7.7336   17.6287 H   0  0  0  0  0  0  0  0  0  0  0  0
   -0.7197    5.3836   18.0175 H   0  0  0  0  0  0  0  0  0  0  0  0
   -1.6566    4.4094   19.9896 H   0  0  0  0  0  0  0  0  0  0  0  0
   -2.8013    5.7855   21.5754 H   0  0  0  0  0  0  0  0  0  0  0  0
   -4.3179    9.7237   20.2486 H   0  0  0  0  0  0  0  0  0  0  0  0
   -5.1510   10.7135   22.4282 H   0  0  0  0  0  0  0  0  0  0  0  0
   -3.4759    8.6622   26.5495 H   0  0  0  0  0  0  0  0  0  0  0  0
   -1.8107    5.0128   24.6301 H   0  0  0  0  0  0  0  0  0  0  0  0
    0.0928    4.2635   28.1313 H   0  0  0  0  0  0  0  0  0  0  0  0
   -1.1401    4.1143   29.9190 H   0  0  0  0  0  0  0  0  0  0  0  0
   -1.7868    4.5016   31.3676 H   0  0  0  0  0  0  0  0  0  0  0  0
   -2.4241    5.1203   29.9972 H   0  0  0  0  0  0  0  0  0  0  0  0
   -0.2731    7.3311   32.0192 H   0  0  0  0  0  0  0  0  0  0  0  0
   -0.5152    5.8116   32.5660 H   0  0  0  0  0  0  0  0  0  0  0  0
    0.8897    6.2003   31.8300 H   0  0  0  0  0  0  0  0  0  0  0  0
   -1.5943    7.9913   27.4963 H   0  0  0  0  0  0  0  0  0  0  0  0
   -1.8471    6.6973   23.2983 H   0  0  0  0  0  0  0  0  0  0  0  0
  1  2  1  0  0  0  0
  2  3  1  0  0  0  0
  3  4  2  0  0  0  0
  4  5  1  0  0  0  0
  5  6  2  0  0  0  0
  6  7  1  0  0  0  0
  7  8  2  0  0  0  0
  8  9  1  0  0  0  0
  9 10  2  0  0  0  0
 10 11  1  0  0  0  0
 11 12  1  0  0  0  0
 12 13  2  0  0  0  0
 13 14  1  0  0  0  0
 14 15  2  0  0  0  0
 15 16  1  0  0  0  0
 16 17  2  0  0  0  0
 17 18  1  0  0  0  0
 18 19  2  0  0  0  0
 19 20  1  0  0  0  0
 20 21  1  0  0  0  0
 21 22  2  0  0  0  0
 21 23  1  0  0  0  0
 23 24  1  0  0  0  0
 23 25  1  0  0  0  0
 20 26  2  0  0  0  0
 15 27  1  0  0  0  0
 27 28  2  0  0  0  0
  8  3  1  0  0  0  0
 28  9  1  0  0  0  0
 28 12  1  0  0  0  0
 26 16  1  0  0  0  0
  1 29  1  0  0  0  0
  1 30  1  0  0  0  0
  1 31  1  0  0  0  0
  4 32  1  0  0  0  0
  5 33  1  0  0  0  0
  6 34  1  0  0  0  0
  7 35  1  0  0  0  0
 10 36  1  0  0  0  0
 11 37  1  0  0  0  0
 14 38  1  0  0  0  0
 17 39  1  0  0  0  0
 19 40  1  0  0  0  0
 24 41  1  0  0  0  0
 24 42  1  0  0  0  0
 24 43  1  0  0  0  0
 25 44  1  0  0  0  0
 25 45  1  0  0  0  0
 25 46  1  0  0  0  0
 26 47  1  0  0  0  0
 27 48  1  0  0  0  0
M  END
>  <docking-score>
-35.80

$$$$
3MS9_MS9_1
foFlexX   03222115263D 1   1.00000     0.00000     0
FlexX 4.5.0 fol007
 20 20  0  0  0  0            999 V2000
    3.0278    3.9133   16.8076 C   0  0  0  0  0  0  0  0  0  0  0  0
    2.1879    4.7814   17.5584 O   0  0  0  0  0  0  0  0  0  0  0  0
    1.5248    5.8719   16.9862 C   0  0  0  0  0  0  0  0  0  0  0  0
    1.9267    6.3521   15.8903 O   0  0  0  0  0  0  0  0  0  0  0  0
    0.3394    6.4179   17.6187 C   0  0  0  0  0  0  0  0  0  0  0  0
    0.2475    6.3793   19.0065 C   0  0  0  0  0  0  0  0  0  0  0  0
   -0.8763    6.8950   19.6440 C   0  0  0  0  0  0  0  0  0  0  0  0
   -1.9020    7.4465   18.8828 C   0  0  0  0  0  0  0  0  0  0  0  0
   -3.3426    8.1076   19.6934 Cl  0  0  0  0  0  0  0  0  0  0  0  0
   -1.8167    7.4882   17.4949 C   0  0  0  0  0  0  0  0  0  0  0  0
   -0.6902    6.9711   16.8630 C   0  0  0  0  0  0  0  0  0  0  0  0
   -0.6218    7.0219   15.4653 N   0  0  0  0  0  0  0  0  0  0  0  0
    3.7792    4.4390   16.4088 H   0  0  0  0  0  0  0  0  0  0  0  0
    3.3985    3.2056   17.4091 H   0  0  0  0  0  0  0  0  0  0  0  0
    2.4962    3.4848   16.0769 H   0  0  0  0  0  0  0  0  0  0  0  0
    0.9894    5.9808   19.5457 H   0  0  0  0  0  0  0  0  0  0  0  0
   -0.9462    6.8695   20.6412 H   0  0  0  0  0  0  0  0  0  0  0  0
   -2.5589    7.8864   16.9559 H   0  0  0  0  0  0  0  0  0  0  0  0
   -0.5405    6.1764   14.9376 H   0  0  0  0  0  0  0  0  0  0  0  0
   -0.6542    7.9038   14.9949 H   0  0  0  0  0  0  0  0  0  0  0  0
  1  2  1  0  0  0  0
  2  3  1  0  0  0  0
  3  4  2  0  0  0  0
  3  5  1  0  0  0  0
  5  6  2  0  0  0  0
  6  7  1  0  0  0  0
  7  8  2  0  0  0  0
  8  9  1  0  0  0  0
  8 10  1  0  0  0  0
 10 11  2  0  0  0  0
 11 12  1  0  0  0  0
 11  5  1  0  0  0  0
  1 13  1  0  0  0  0
  1 14  1  0  0  0  0
  1 15  1  0  0  0  0
  6 16  1  0  0  0  0
  7 17  1  0  0  0  0
 10 18  1  0  0  0  0
 12 19  1  0  0  0  0
 12 20  1  0  0  0  0
M  END
>  <docking-score>
-15.43

$$$$
3MS9_MS9_2
foFlexX   03222115263D 1   1.00000     0.00000     0
FlexX 4.5.0 fol007
 20 20  0  0  0  0            999 V2000
   -2.4431    7.7092   26.7584 C   0  0  0  0  0  0  0  0  0  0  0  0
   -2.2548    7.9810   25.3751 O   0  0  0  0  0  0  0  0  0  0  0  0
   -3.2246    8.6142   24.5910 C   0  0  0  0  0  0  0  0  0  0  0  0
   -4.1332    9.2977   25.1391 O   0  0  0  0  0  0  0  0  0  0  0  0
   -3.1569    8.5366   23.1444 C   0  0  0  0  0  0  0  0  0  0  0  0
   -2.1458    7.7764   22.5650 C   0  0  0  0  0  0  0  0  0  0  0  0
   -2.0534    7.6813   21.1802 C   0  0  0  0  0  0  0  0  0  0  0  0
   -2.9779    8.3514   20.3851 C   0  0  0  0  0  0  0  0  0  0  0  0
   -2.8642    8.2334   18.6124 Cl  0  0  0  0  0  0  0  0  0  0  0  0
   -3.9912    9.1133   20.9578 C   0  0  0  0  0  0  0  0  0  0  0  0
   -4.0787    9.2044   22.3434 C   0  0  0  0  0  0  0  0  0  0  0  0
   -5.1053    9.9756   22.9020 N   0  0  0  0  0  0  0  0  0  0  0  0
   -3.2388    7.1150   26.8761 H   0  0  0  0  0  0  0  0  0  0  0  0
   -1.6305    7.2540   27.1224 H   0  0  0  0  0  0  0  0  0  0  0  0
   -2.5925    8.5675   27.2494 H   0  0  0  0  0  0  0  0  0  0  0  0
   -1.4854    7.2984   23.1441 H   0  0  0  0  0  0  0  0  0  0  0  0
   -1.3285    7.1358   20.7596 H   0  0  0  0  0  0  0  0  0  0  0  0
   -4.6513    9.5915   20.3785 H   0  0  0  0  0  0  0  0  0  0  0  0
   -5.4608   10.7686   22.4072 H   0  0  0  0  0  0  0  0  0  0  0  0
   -5.4830    9.7334   23.7957 H   0  0  0  0  0  0  0  0  0  0  0  0
  1  2  1  0  0  0  0
  2  3  1  0  0  0  0
  3  4  2  0  0  0  0
  3  5  1  0  0  0  0
  5  6  2  0  0  0  0
  6  7  1  0  0  0  0
  7  8  2  0  0  0  0
  8  9  1  0  0  0  0
  8 10  1  0  0  0  0
 10 11  2  0  0  0  0
 11 12  1  0  0  0  0
 11  5  1  0  0  0  0
  1 13  1  0  0  0  0
  1 14  1  0  0  0  0
  1 15  1  0  0  0  0
  6 16  1  0  0  0  0
  7 17  1  0  0  0  0
 10 18  1  0  0  0  0
 12 19  1  0  0  0  0
 12 20  1  0  0  0  0
M  END
>  <docking-score>
-15.41

$$$$
3MS9_MS9_3
foFlexX   03222115263D 1   1.00000     0.00000     0
FlexX 4.5.0 fol007
 20 20  0  0  0  0            999 V2000
    2.9490    5.6102   15.0603 C   0  0  0  0  0  0  0  0  0  0  0  0
    2.0345    6.3575   15.8530 O   0  0  0  0  0  0  0  0  0  0  0  0
    1.4568    5.8491   17.0209 C   0  0  0  0  0  0  0  0  0  0  0  0
    1.9926    4.8752   17.6190 O   0  0  0  0  0  0  0  0  0  0  0  0
    0.2745    6.4745   17.5813 C   0  0  0  0  0  0  0  0  0  0  0  0
    0.1100    6.4693   18.9629 C   0  0  0  0  0  0  0  0  0  0  0  0
   -1.0129    7.0611   19.5322 C   0  0  0  0  0  0  0  0  0  0  0  0
   -1.9648    7.6548   18.7093 C   0  0  0  0  0  0  0  0  0  0  0  0
   -3.4040    8.4134   19.4322 Cl  0  0  0  0  0  0  0  0  0  0  0  0
   -1.8067    7.6634   17.3271 C   0  0  0  0  0  0  0  0  0  0  0  0
   -0.6814    7.0702   16.7637 C   0  0  0  0  0  0  0  0  0  0  0  0
   -0.5390    7.0888   15.3708 N   0  0  0  0  0  0  0  0  0  0  0  0
    2.5042    4.7751   14.7364 H   0  0  0  0  0  0  0  0  0  0  0  0
    3.2371    6.1600   14.2763 H   0  0  0  0  0  0  0  0  0  0  0  0
    3.7485    5.3701   15.6109 H   0  0  0  0  0  0  0  0  0  0  0  0
    0.7991    6.0400   19.5468 H   0  0  0  0  0  0  0  0  0  0  0  0
   -1.1350    7.0599   20.5247 H   0  0  0  0  0  0  0  0  0  0  0  0
   -2.4961    8.0925   16.7434 H   0  0  0  0  0  0  0  0  0  0  0  0
   -0.4802    6.2295   14.8627 H   0  0  0  0  0  0  0  0  0  0  0  0
   -0.4962    7.9613   14.8841 H   0  0  0  0  0  0  0  0  0  0  0  0
  1  2  1  0  0  0  0
  2  3  1  0  0  0  0
  3  4  2  0  0  0  0
  3  5  1  0  0  0  0
  5  6  2  0  0  0  0
  6  7  1  0  0  0  0
  7  8  2  0  0  0  0
  8  9  1  0  0  0  0
  8 10  1  0  0  0  0
 10 11  2  0  0  0  0
 11 12  1  0  0  0  0
 11  5  1  0  0  0  0
  1 13  1  0  0  0  0
  1 14  1  0  0  0  0
  1 15  1  0  0  0  0
  6 16  1  0  0  0  0
  7 17  1  0  0  0  0
 10 18  1  0  0  0  0
 12 19  1  0  0  0  0
 12 20  1  0  0  0  0
M  END
>  <docking-score>
-15.29

$$$$
3K5V_STJ_1
foFlexX   03222115263D 1   1.00000     0.00000     0
FlexX 4.5.0 fol007
 40 42  0  0  0  0            999 V2000
   -1.4897    7.9107   16.7155 N   0  0  0  0  0  0  0  0  0  0  0  0
   -2.4420    7.8082   17.7777 C   0  0  0  0  0  0  0  0  0  0  0  0
   -3.6684    7.9179   17.5072 O   0  0  0  0  0  0  0  0  0  0  0  0
   -2.0282    7.5670   19.1461 C   0  0  0  0  0  0  0  0  0  0  0  0
   -0.9874    6.6821   19.4087 C   0  0  0  0  0  0  0  0  0  0  0  0
   -0.6041    6.4632   20.7281 C   0  0  0  0  0  0  0  0  0  0  0  0
   -1.2449    7.1138   21.7772 C   0  0  0  0  0  0  0  0  0  0  0  0
   -2.2831    7.9950   21.4915 C   0  0  0  0  0  0  0  0  0  0  0  0
   -2.9582    8.6793   22.5777 C   0  0  0  0  0  0  0  0  0  0  0  0
   -3.0464    8.0572   23.8187 C   0  0  0  0  0  0  0  0  0  0  0  0
   -3.6962    8.7223   24.8535 C   0  0  0  0  0  0  0  0  0  0  0  0
   -3.7915    8.1049   26.1072 N   0  0  0  0  0  0  0  0  0  0  0  0
   -2.6574    7.7121   26.8989 C   0  0  0  0  0  0  0  0  0  0  0  0
   -2.4851    8.2542   28.1687 C   0  0  0  0  0  0  0  0  0  0  0  0
   -1.3906    7.8799   28.9421 C   0  0  0  0  0  0  0  0  0  0  0  0
   -0.4787    6.9631   28.4295 C   0  0  0  0  0  0  0  0  0  0  0  0
    0.5873    6.5925   29.1693 O   0  0  0  0  0  0  0  0  0  0  0  0
    0.8774    5.2603   29.5868 C   0  0  0  0  0  0  0  0  0  0  0  0
    1.0344    4.4387   28.4848 F   0  0  0  0  0  0  0  0  0  0  0  0
   -0.1757    4.7894   30.3467 F   0  0  0  0  0  0  0  0  0  0  0  0
    2.0264    5.2414   30.3570 F   0  0  0  0  0  0  0  0  0  0  0  0
   -0.6427    6.4163   27.1603 C   0  0  0  0  0  0  0  0  0  0  0  0
   -1.7399    6.7958   26.3943 C   0  0  0  0  0  0  0  0  0  0  0  0
   -4.2154    9.9382   24.6249 N   0  0  0  0  0  0  0  0  0  0  0  0
   -4.1223   10.5257   23.4224 C   0  0  0  0  0  0  0  0  0  0  0  0
   -3.4989    9.8962   22.4151 N   0  0  0  0  0  0  0  0  0  0  0  0
   -2.6828    8.2287   20.1797 C   0  0  0  0  0  0  0  0  0  0  0  0
   -1.8011    8.0668   15.7781 H   0  0  0  0  0  0  0  0  0  0  0  0
   -0.5125    7.8263   16.9102 H   0  0  0  0  0  0  0  0  0  0  0  0
   -0.5216    6.2102   18.6601 H   0  0  0  0  0  0  0  0  0  0  0  0
    0.1433    5.8287   20.9250 H   0  0  0  0  0  0  0  0  0  0  0  0
   -0.9637    6.9506   22.7229 H   0  0  0  0  0  0  0  0  0  0  0  0
   -2.6508    7.1504   23.9641 H   0  0  0  0  0  0  0  0  0  0  0  0
   -4.7045    7.9263   26.4742 H   0  0  0  0  0  0  0  0  0  0  0  0
   -3.1477    8.9127   28.5254 H   0  0  0  0  0  0  0  0  0  0  0  0
   -1.2611    8.2654   29.8557 H   0  0  0  0  0  0  0  0  0  0  0  0
    0.0203    5.7582   26.8034 H   0  0  0  0  0  0  0  0  0  0  0  0
   -1.8693    6.4102   25.4807 H   0  0  0  0  0  0  0  0  0  0  0  0
   -4.5176   11.4327   23.2770 H   0  0  0  0  0  0  0  0  0  0  0  0
   -3.4300    8.8634   19.9825 H   0  0  0  0  0  0  0  0  0  0  0  0
  1  2  1  0  0  0  0
  2  3  2  0  0  0  0
  2  4  1  0  0  0  0
  4  5  2  0  0  0  0
  5  6  1  0  0  0  0
  6  7  2  0  0  0  0
  7  8  1  0  0  0  0
  8  9  1  0  0  0  0
  9 10  2  0  0  0  0
 10 11  1  0  0  0  0
 11 12  1  0  0  0  0
 12 13  1  0  0  0  0
 13 14  2  0  0  0  0
 14 15  1  0  0  0  0
 15 16  2  0  0  0  0
 16 17  1  0  0  0  0
 17 18  1  0  0  0  0
 18 19  1  0  0  0  0
 18 20  1  0  0  0  0
 18 21  1  0  0  0  0
 16 22  1  0  0  0  0
 22 23  2  0  0  0  0
 11 24  2  0  0  0  0
 24 25  1  0  0  0  0
 25 26  2  0  0  0  0
  8 27  2  0  0  0  0
 27  4  1  0  0  0  0
 26  9  1  0  0  0  0
 23 13  1  0  0  0  0
  1 28  1  0  0  0  0
  1 29  1  0  0  0  0
  5 30  1  0  0  0  0
  6 31  1  0  0  0  0
  7 32  1  0  0  0  0
 10 33  1  0  0  0  0
 12 34  1  0  0  0  0
 14 35  1  0  0  0  0
 15 36  1  0  0  0  0
 22 37  1  0  0  0  0
 23 38  1  0  0  0  0
 25 39  1  0  0  0  0
 27 40  1  0  0  0  0
M  END
>  <docking-score>
-35.42

$$$$
3K5V_STJ_2
foFlexX   03222115263D 1   1.00000     0.00000     0
FlexX 4.5.0 fol007
 40 42  0  0  0  0            999 V2000
   -1.7005    8.3116   16.6385 N   0  0  0  0  0  0  0  0  0  0  0  0
   -2.5877    8.0581   17.7313 C   0  0  0  0  0  0  0  0  0  0  0  0
   -3.8258    7.9855   17.5048 O   0  0  0  0  0  0  0  0  0  0  0  0
   -2.0933    7.8691   19.0810 C   0  0  0  0  0  0  0  0  0  0  0  0
   -0.9233    7.1477   19.2949 C   0  0  0  0  0  0  0  0  0  0  0  0
   -0.4640    6.9767   20.5969 C   0  0  0  0  0  0  0  0  0  0  0  0
   -1.1564    7.5145   21.6768 C   0  0  0  0  0  0  0  0  0  0  0  0
   -2.3242    8.2329   21.4397 C   0  0  0  0  0  0  0  0  0  0  0  0
   -3.0541    8.7986   22.5582 C   0  0  0  0  0  0  0  0  0  0  0  0
   -3.0034    8.1592   23.7925 C   0  0  0  0  0  0  0  0  0  0  0  0
   -3.7073    8.7101   24.8585 C   0  0  0  0  0  0  0  0  0  0  0  0
   -3.6640    8.0740   26.1057 N   0  0  0  0  0  0  0  0  0  0  0  0
   -2.4560    7.8483   26.8522 C   0  0  0  0  0  0  0  0  0  0  0  0
   -2.3206    8.3986   28.1229 C   0  0  0  0  0  0  0  0  0  0  0  0
   -1.1552    8.1853   28.8527 C   0  0  0  0  0  0  0  0  0  0  0  0
   -0.1359    7.4201   28.2959 C   0  0  0  0  0  0  0  0  0  0  0  0
    0.9996    7.2065   28.9931 O   0  0  0  0  0  0  0  0  0  0  0  0
    1.0780    6.5614   30.2624 C   0  0  0  0  0  0  0  0  0  0  0  0
    0.5881    5.2706   30.1723 F   0  0  0  0  0  0  0  0  0  0  0  0
    0.3125    7.2657   31.1713 F   0  0  0  0  0  0  0  0  0  0  0  0
    2.3882    6.5390   30.7056 F   0  0  0  0  0  0  0  0  0  0  0  0
   -0.2623    6.8663   27.0254 C   0  0  0  0  0  0  0  0  0  0  0  0
   -1.4309    7.0843   26.3031 C   0  0  0  0  0  0  0  0  0  0  0  0
   -4.4101    9.8366   24.6654 N   0  0  0  0  0  0  0  0  0  0  0  0
   -4.4494   10.4423   23.4690 C   0  0  0  0  0  0  0  0  0  0  0  0
   -3.7758    9.9223   22.4318 N   0  0  0  0  0  0  0  0  0  0  0  0
   -2.8015    8.4161   20.1459 C   0  0  0  0  0  0  0  0  0  0  0  0
   -2.0655    8.4278   15.7147 H   0  0  0  0  0  0  0  0  0  0  0  0
   -0.7152    8.3727   16.7982 H   0  0  0  0  0  0  0  0  0  0  0  0
   -0.4197    6.7577   18.5240 H   0  0  0  0  0  0  0  0  0  0  0  0
    0.3763    6.4595   20.7589 H   0  0  0  0  0  0  0  0  0  0  0  0
   -0.8199    7.3867   22.6098 H   0  0  0  0  0  0  0  0  0  0  0  0
   -2.4719    7.3205   23.9111 H   0  0  0  0  0  0  0  0  0  0  0  0
   -4.5261    7.7575   26.5013 H   0  0  0  0  0  0  0  0  0  0  0  0
   -3.0608    8.9473   28.5116 H   0  0  0  0  0  0  0  0  0  0  0  0
   -1.0518    8.5776   29.7668 H   0  0  0  0  0  0  0  0  0  0  0  0
    0.4781    6.3182   26.6364 H   0  0  0  0  0  0  0  0  0  0  0  0
   -1.5342    6.6919   25.3891 H   0  0  0  0  0  0  0  0  0  0  0  0
   -4.9806   11.2812   23.3503 H   0  0  0  0  0  0  0  0  0  0  0  0
   -3.6417    8.9335   19.9838 H   0  0  0  0  0  0  0  0  0  0  0  0
  1  2  1  0  0  0  0
  2  3  2  0  0  0  0
  2  4  1  0  0  0  0
  4  5  2  0  0  0  0
  5  6  1  0  0  0  0
  6  7  2  0  0  0  0
  7  8  1  0  0  0  0
  8  9  1  0  0  0  0
  9 10  2  0  0  0  0
 10 11  1  0  0  0  0
 11 12  1  0  0  0  0
 12 13  1  0  0  0  0
 13 14  2  0  0  0  0
 14 15  1  0  0  0  0
 15 16  2  0  0  0  0
 16 17  1  0  0  0  0
 17 18  1  0  0  0  0
 18 19  1  0  0  0  0
 18 20  1  0  0  0  0
 18 21  1  0  0  0  0
 16 22  1  0  0  0  0
 22 23  2  0  0  0  0
 11 24  2  0  0  0  0
 24 25  1  0  0  0  0
 25 26  2  0  0  0  0
  8 27  2  0  0  0  0
 27  4  1  0  0  0  0
 26  9  1  0  0  0  0
 23 13  1  0  0  0  0
  1 28  1  0  0  0  0
  1 29  1  0  0  0  0
  5 30  1  0  0  0  0
  6 31  1  0  0  0  0
  7 32  1  0  0  0  0
 10 33  1  0  0  0  0
 12 34  1  0  0  0  0
 14 35  1  0  0  0  0
 15 36  1  0  0  0  0
 22 37  1  0  0  0  0
 23 38  1  0  0  0  0
 25 39  1  0  0  0  0
 27 40  1  0  0  0  0
M  END
>  <docking-score>
-33.93

$$$$
3K5V_STJ_3
foFlexX   03222115263D 1   1.00000     0.00000     0
FlexX 4.5.0 fol007
 40 42  0  0  0  0            999 V2000
   -1.4945    8.0353   16.7277 N   0  0  0  0  0  0  0  0  0  0  0  0
   -2.4211    7.8480   17.8009 C   0  0  0  0  0  0  0  0  0  0  0  0
   -3.6550    7.8306   17.5427 O   0  0  0  0  0  0  0  0  0  0  0  0
   -1.9717    7.6637   19.1670 C   0  0  0  0  0  0  0  0  0  0  0  0
   -0.8444    6.8911   19.4264 C   0  0  0  0  0  0  0  0  0  0  0  0
   -0.4280    6.7254   20.7435 C   0  0  0  0  0  0  0  0  0  0  0  0
   -1.1210    7.3187   21.7935 C   0  0  0  0  0  0  0  0  0  0  0  0
   -2.2457    8.0876   21.5110 C   0  0  0  0  0  0  0  0  0  0  0  0
   -2.9758    8.7113   22.5981 C   0  0  0  0  0  0  0  0  0  0  0  0
   -2.9886    8.0962   23.8456 C   0  0  0  0  0  0  0  0  0  0  0  0
   -3.6921    8.7027   24.8811 C   0  0  0  0  0  0  0  0  0  0  0  0
   -3.7123    8.0917   26.1414 N   0  0  0  0  0  0  0  0  0  0  0  0
   -2.5367    7.8235   26.9244 C   0  0  0  0  0  0  0  0  0  0  0  0
   -1.7186    8.8775   27.3187 C   0  0  0  0  0  0  0  0  0  0  0  0
   -0.5788    8.6275   28.0768 C   0  0  0  0  0  0  0  0  0  0  0  0
   -0.2726    7.3177   28.4306 C   0  0  0  0  0  0  0  0  0  0  0  0
    0.8303    7.0619   29.1649 O   0  0  0  0  0  0  0  0  0  0  0  0
    1.0892    7.5763   30.4694 C   0  0  0  0  0  0  0  0  0  0  0  0
    0.0995    7.1709   31.3470 F   0  0  0  0  0  0  0  0  0  0  0  0
    1.0966    8.9566   30.4135 F   0  0  0  0  0  0  0  0  0  0  0  0
    2.3239    7.1416   30.9170 F   0  0  0  0  0  0  0  0  0  0  0  0
   -1.0847    6.2571   28.0402 C   0  0  0  0  0  0  0  0  0  0  0  0
   -2.2223    6.5162   27.2829 C   0  0  0  0  0  0  0  0  0  0  0  0
   -4.3337    9.8577   24.6470 N   0  0  0  0  0  0  0  0  0  0  0  0
   -4.3122   10.4393   23.4383 C   0  0  0  0  0  0  0  0  0  0  0  0
   -3.6382    9.8658   22.4301 N   0  0  0  0  0  0  0  0  0  0  0  0
   -2.6798    8.2665   20.2014 C   0  0  0  0  0  0  0  0  0  0  0  0
   -1.8293    8.1496   15.7923 H   0  0  0  0  0  0  0  0  0  0  0  0
   -0.5119    8.0520   16.9126 H   0  0  0  0  0  0  0  0  0  0  0  0
   -0.3406    6.4611   18.6772 H   0  0  0  0  0  0  0  0  0  0  0  0
    0.3815    6.1716   20.9383 H   0  0  0  0  0  0  0  0  0  0  0  0
   -0.8155    7.1943   22.7376 H   0  0  0  0  0  0  0  0  0  0  0  0
   -2.5020    7.2355   23.9950 H   0  0  0  0  0  0  0  0  0  0  0  0
   -4.5990    7.8256   26.5198 H   0  0  0  0  0  0  0  0  0  0  0  0
   -1.9496    9.8147   27.0573 H   0  0  0  0  0  0  0  0  0  0  0  0
    0.0132    9.3807   28.3638 H   0  0  0  0  0  0  0  0  0  0  0  0
   -0.8532    5.3199   28.3010 H   0  0  0  0  0  0  0  0  0  0  0  0
   -2.8142    5.7630   26.9960 H   0  0  0  0  0  0  0  0  0  0  0  0
   -4.7985   11.3003   23.2889 H   0  0  0  0  0  0  0  0  0  0  0  0
   -3.4892    8.8205   20.0065 H   0  0  0  0  0  0  0  0  0  0  0  0
  1  2  1  0  0  0  0
  2  3  2  0  0  0  0
  2  4  1  0  0  0  0
  4  5  2  0  0  0  0
  5  6  1  0  0  0  0
  6  7  2  0  0  0  0
  7  8  1  0  0  0  0
  8  9  1  0  0  0  0
  9 10  2  0  0  0  0
 10 11  1  0  0  0  0
 11 12  1  0  0  0  0
 12 13  1  0  0  0  0
 13 14  2  0  0  0  0
 14 15  1  0  0  0  0
 15 16  2  0  0  0  0
 16 17  1  0  0  0  0
 17 18  1  0  0  0  0
 18 19  1  0  0  0  0
 18 20  1  0  0  0  0
 18 21  1  0  0  0  0
 16 22  1  0  0  0  0
 22 23  2  0  0  0  0
 11 24  2  0  0  0  0
 24 25  1  0  0  0  0
 25 26  2  0  0  0  0
  8 27  2  0  0  0  0
 27  4  1  0  0  0  0
 26  9  1  0  0  0  0
 23 13  1  0  0  0  0
  1 28  1  0  0  0  0
  1 29  1  0  0  0  0
  5 30  1  0  0  0  0
  6 31  1  0  0  0  0
  7 32  1  0  0  0  0
 10 33  1  0  0  0  0
 12 34  1  0  0  0  0
 14 35  1  0  0  0  0
 15 36  1  0  0  0  0
 22 37  1  0  0  0  0
 23 38  1  0  0  0  0
 25 39  1  0  0  0  0
 27 40  1  0  0  0  0
M  END
>  <docking-score>
-33.08

$$$$
3K5V_STI_1
foFlexX   03222115263D 1   1.00000     0.00000     0
FlexX 4.5.0 fol007
 70 74  0  0  0  0            999 V2000
   -4.8685   10.1973   23.9275 C   0  0  0  0  0  0  0  0  0  0  0  0
   -3.9920    8.9978   24.2492 C   0  0  0  0  0  0  0  0  0  0  0  0
   -4.1925    8.3257   25.4504 C   0  0  0  0  0  0  0  0  0  0  0  0
   -3.4054    7.2243   25.7710 C   0  0  0  0  0  0  0  0  0  0  0  0
   -2.4219    6.8066   24.8805 C   0  0  0  0  0  0  0  0  0  0  0  0
   -1.6015    5.6680   25.2024 N   0  0  0  0  0  0  0  0  0  0  0  0
   -1.2465    5.2698   26.5366 C   0  0  0  0  0  0  0  0  0  0  0  0
   -1.0486    4.0479   26.7723 O   0  0  0  0  0  0  0  0  0  0  0  0
   -1.0653    6.2568   27.6277 C   0  0  0  0  0  0  0  0  0  0  0  0
   -1.0764    7.6153   27.3275 C   0  0  0  0  0  0  0  0  0  0  0  0
   -0.9088    8.5534   28.3411 C   0  0  0  0  0  0  0  0  0  0  0  0
   -0.7314    8.1128   29.6493 C   0  0  0  0  0  0  0  0  0  0  0  0
   -0.5462    9.1266   30.7669 C   0  0  0  0  0  0  0  0  0  0  0  0
   -1.8424    9.5310   31.3724 N   0  3  0  0  0  0  0  0  0  0  0  0
   -1.7665   10.9124   31.8754 C   0  0  0  0  0  0  0  0  0  0  0  0
   -3.0888   11.3717   32.4721 C   0  0  0  0  0  0  0  0  0  0  0  0
   -3.9805   10.2300   32.7343 N   0  3  0  0  0  0  0  0  0  0  0  0
   -5.0507   10.6965   33.6266 C   0  0  0  0  0  0  0  0  0  0  0  0
   -3.2289    9.1403   33.3762 C   0  0  0  0  0  0  0  0  0  0  0  0
   -2.1397    8.5939   32.4661 C   0  0  0  0  0  0  0  0  0  0  0  0
   -0.7194    6.7557   29.9540 C   0  0  0  0  0  0  0  0  0  0  0  0
   -0.8875    5.8215   28.9367 C   0  0  0  0  0  0  0  0  0  0  0  0
   -2.2153    7.4735   23.6772 C   0  0  0  0  0  0  0  0  0  0  0  0
   -3.0062    8.5742   23.3633 C   0  0  0  0  0  0  0  0  0  0  0  0
   -2.8103    9.2556   22.1559 N   0  0  0  0  0  0  0  0  0  0  0  0
   -2.3315    8.6319   20.9565 C   0  0  0  0  0  0  0  0  0  0  0  0
   -2.0502    7.3207   20.9760 N   0  0  0  0  0  0  0  0  0  0  0  0
   -1.5994    6.6851   19.8845 C   0  0  0  0  0  0  0  0  0  0  0  0
   -1.4177    7.3962   18.7030 C   0  0  0  0  0  0  0  0  0  0  0  0
   -1.7119    8.7554   18.6924 C   0  0  0  0  0  0  0  0  0  0  0  0
   -1.5247    9.5053   17.4632 C   0  0  0  0  0  0  0  0  0  0  0  0
   -1.8147   10.8654   17.4411 C   0  0  0  0  0  0  0  0  0  0  0  0
   -1.6333   11.5802   16.2623 C   0  0  0  0  0  0  0  0  0  0  0  0
   -1.1654   10.9077   15.1383 C   0  0  0  0  0  0  0  0  0  0  0  0
   -0.8929    9.5952   15.1844 N   0  0  0  0  0  0  0  0  0  0  0  0
   -1.0592    8.8834   16.3093 C   0  0  0  0  0  0  0  0  0  0  0  0
   -2.1597    9.3286   19.8214 N   0  0  0  0  0  0  0  0  0  0  0  0
   -4.6078   10.5716   23.0376 H   0  0  0  0  0  0  0  0  0  0  0  0
   -5.8268    9.9125   23.9015 H   0  0  0  0  0  0  0  0  0  0  0  0
   -4.7477   10.8969   24.6317 H   0  0  0  0  0  0  0  0  0  0  0  0
   -4.9024    8.6343   26.0835 H   0  0  0  0  0  0  0  0  0  0  0  0
   -3.5453    6.7377   26.6333 H   0  0  0  0  0  0  0  0  0  0  0  0
   -1.2545    5.1157   24.4445 H   0  0  0  0  0  0  0  0  0  0  0  0
   -1.2048    7.9174   26.3829 H   0  0  0  0  0  0  0  0  0  0  0  0
   -0.9156    9.5314   28.1324 H   0  0  0  0  0  0  0  0  0  0  0  0
   -0.0963    9.9385   30.3950 H   0  0  0  0  0  0  0  0  0  0  0  0
    0.0298    8.7222   31.4774 H   0  0  0  0  0  0  0  0  0  0  0  0
   -2.5625    9.4706   30.6812 H   0  0  0  0  0  0  0  0  0  0  0  0
   -1.5251   11.5194   31.1184 H   0  0  0  0  0  0  0  0  0  0  0  0
   -1.0592   10.9614   32.5806 H   0  0  0  0  0  0  0  0  0  0  0  0
   -2.9099   11.8499   33.3320 H   0  0  0  0  0  0  0  0  0  0  0  0
   -3.5368   11.9949   31.8311 H   0  0  0  0  0  0  0  0  0  0  0  0
   -4.3754    9.9063   31.8746 H   0  0  0  0  0  0  0  0  0  0  0  0
   -5.5550   11.4375   33.1832 H   0  0  0  0  0  0  0  0  0  0  0  0
   -5.6743    9.9398   33.8231 H   0  0  0  0  0  0  0  0  0  0  0  0
   -4.6511   11.0295   34.4806 H   0  0  0  0  0  0  0  0  0  0  0  0
   -3.8621    8.4005   33.6037 H   0  0  0  0  0  0  0  0  0  0  0  0
   -2.8071    9.4875   34.2138 H   0  0  0  0  0  0  0  0  0  0  0  0
   -1.3094    8.4454   33.0034 H   0  0  0  0  0  0  0  0  0  0  0  0
   -2.4449    7.7247   32.0771 H   0  0  0  0  0  0  0  0  0  0  0  0
   -0.5907    6.4533   30.8985 H   0  0  0  0  0  0  0  0  0  0  0  0
   -0.8806    4.8435   29.1453 H   0  0  0  0  0  0  0  0  0  0  0  0
   -1.5055    7.1647   23.0441 H   0  0  0  0  0  0  0  0  0  0  0  0
   -3.0163   10.2338   22.1283 H   0  0  0  0  0  0  0  0  0  0  0  0
   -1.3953    5.7067   19.9199 H   0  0  0  0  0  0  0  0  0  0  0  0
   -1.0827    6.9399   17.8786 H   0  0  0  0  0  0  0  0  0  0  0  0
   -2.1499   11.3242   18.2639 H   0  0  0  0  0  0  0  0  0  0  0  0
   -1.8353   12.5588   16.2234 H   0  0  0  0  0  0  0  0  0  0  0  0
   -1.0304   11.4097   14.2840 H   0  0  0  0  0  0  0  0  0  0  0  0
   -0.8485    7.9059   16.3183 H   0  0  0  0  0  0  0  0  0  0  0  0
  1  2  1  0  0  0  0
  2  3  2  0  0  0  0
  3  4  1  0  0  0  0
  4  5  2  0  0  0  0
  5  6  1  0  0  0  0
  6  7  1  0  0  0  0
  7  8  2  0  0  0  0
  7  9  1  0  0  0  0
  9 10  2  0  0  0  0
 10 11  1  0  0  0  0
 11 12  2  0  0  0  0
 12 13  1  0  0  0  0
 13 14  1  0  0  0  0
 14 15  1  0  0  0  0
 15 16  1  0  0  0  0
 16 17  1  0  0  0  0
 17 18  1  0  0  0  0
 17 19  1  0  0  0  0
 19 20  1  0  0  0  0
 12 21  1  0  0  0  0
 21 22  2  0  0  0  0
  5 23  1  0  0  0  0
 23 24  2  0  0  0  0
 24 25  1  0  0  0  0
 25 26  1  0  0  0  0
 26 27  2  0  0  0  0
 27 28  1  0  0  0  0
 28 29  2  0  0  0  0
 29 30  1  0  0  0  0
 30 31  1  0  0  0  0
 31 32  2  0  0  0  0
 32 33  1  0  0  0  0
 33 34  2  0  0  0  0
 34 35  1  0  0  0  0
 35 36  2  0  0  0  0
 30 37  2  0  0  0  0
 24  2  1  0  0  0  0
 37 26  1  0  0  0  0
 22  9  1  0  0  0  0
 36 31  1  0  0  0  0
 20 14  1  0  0  0  0
  1 38  1  0  0  0  0
  1 39  1  0  0  0  0
  1 40  1  0  0  0  0
  3 41  1  0  0  0  0
  4 42  1  0  0  0  0
  6 43  1  0  0  0  0
 10 44  1  0  0  0  0
 11 45  1  0  0  0  0
 13 46  1  0  0  0  0
 13 47  1  0  0  0  0
 14 48  1  0  0  0  0
 15 49  1  0  0  0  0
 15 50  1  0  0  0  0
 16 51  1  0  0  0  0
 16 52  1  0  0  0  0
 17 53  1  0  0  0  0
 18 54  1  0  0  0  0
 18 55  1  0  0  0  0
 18 56  1  0  0  0  0
 19 57  1  0  0  0  0
 19 58  1  0  0  0  0
 20 59  1  0  0  0  0
 20 60  1  0  0  0  0
 21 61  1  0  0  0  0
 22 62  1  0  0  0  0
 23 63  1  0  0  0  0
 25 64  1  0  0  0  0
 28 65  1  0  0  0  0
 29 66  1  0  0  0  0
 32 67  1  0  0  0  0
 33 68  1  0  0  0  0
 34 69  1  0  0  0  0
 36 70  1  0  0  0  0
M  CHG  2  14   1  17   1
M  END
>  <docking-score>
-22.82

$$$$
3K5V_STI_2
foFlexX   03222115263D 1   1.00000     0.00000     0
FlexX 4.5.0 fol007
 70 74  0  0  0  0            999 V2000
   -4.1367   10.4101   23.8032 C   0  0  0  0  0  0  0  0  0  0  0  0
   -3.3760    9.1394   24.1453 C   0  0  0  0  0  0  0  0  0  0  0  0
   -3.6881    8.4695   25.3237 C   0  0  0  0  0  0  0  0  0  0  0  0
   -3.0084    7.3038   25.6621 C   0  0  0  0  0  0  0  0  0  0  0  0
   -2.0193    6.8199   24.8122 C   0  0  0  0  0  0  0  0  0  0  0  0
   -1.3096    5.6144   25.1530 N   0  0  0  0  0  0  0  0  0  0  0  0
   -1.0532    5.1707   26.4954 C   0  0  0  0  0  0  0  0  0  0  0  0
   -0.9657    3.9338   26.7188 O   0  0  0  0  0  0  0  0  0  0  0  0
   -0.8469    6.1250   27.6109 C   0  0  0  0  0  0  0  0  0  0  0  0
   -0.7344    7.4838   27.3342 C   0  0  0  0  0  0  0  0  0  0  0  0
   -0.5418    8.3915   28.3709 C   0  0  0  0  0  0  0  0  0  0  0  0
   -0.4644    7.9203   29.6781 C   0  0  0  0  0  0  0  0  0  0  0  0
   -0.2533    8.9005   30.8208 C   0  0  0  0  0  0  0  0  0  0  0  0
   -1.5409    9.4002   31.3709 N   0  3  0  0  0  0  0  0  0  0  0  0
   -2.7033    8.8245   30.6756 C   0  0  0  0  0  0  0  0  0  0  0  0
   -3.1133    7.4959   31.2921 C   0  0  0  0  0  0  0  0  0  0  0  0
   -3.6102    7.7114   32.6581 N   0  3  0  0  0  0  0  0  0  0  0  0
   -3.3531    6.5133   33.4706 C   0  0  0  0  0  0  0  0  0  0  0  0
   -3.0249    8.9242   33.2529 C   0  0  0  0  0  0  0  0  0  0  0  0
   -1.5798    9.1042   32.8101 C   0  0  0  0  0  0  0  0  0  0  0  0
   -0.5761    6.5626   29.9594 C   0  0  0  0  0  0  0  0  0  0  0  0
   -0.7688    5.6589   28.9190 C   0  0  0  0  0  0  0  0  0  0  0  0
   -1.7014    7.4841   23.6320 C   0  0  0  0  0  0  0  0  0  0  0  0
   -2.3852    8.6495   23.3001 C   0  0  0  0  0  0  0  0  0  0  0  0
   -2.0766    9.3291   22.1154 N   0  0  0  0  0  0  0  0  0  0  0  0
   -2.1931    8.7485   20.8091 C   0  0  0  0  0  0  0  0  0  0  0  0
   -2.6207    7.4822   20.6988 N   0  0  0  0  0  0  0  0  0  0  0  0
   -2.7487    6.8880   19.5033 C   0  0  0  0  0  0  0  0  0  0  0  0
   -2.4326    7.5961   18.3485 C   0  0  0  0  0  0  0  0  0  0  0  0
   -1.9898    8.9085   18.4729 C   0  0  0  0  0  0  0  0  0  0  0  0
   -1.6574    9.6546   17.2724 C   0  0  0  0  0  0  0  0  0  0  0  0
   -1.2125   10.9676   17.3846 C   0  0  0  0  0  0  0  0  0  0  0  0
   -0.8943   11.6784   16.2327 C   0  0  0  0  0  0  0  0  0  0  0  0
   -1.0321   11.0495   14.9999 C   0  0  0  0  0  0  0  0  0  0  0  0
   -1.4633    9.7821   14.9174 N   0  0  0  0  0  0  0  0  0  0  0  0
   -1.7764    9.0749   16.0135 C   0  0  0  0  0  0  0  0  0  0  0  0
   -1.8848    9.4416   19.7011 N   0  0  0  0  0  0  0  0  0  0  0  0
   -3.8036   10.7741   22.9334 H   0  0  0  0  0  0  0  0  0  0  0  0
   -5.1123   10.2042   23.7267 H   0  0  0  0  0  0  0  0  0  0  0  0
   -3.9947   11.0881   24.5245 H   0  0  0  0  0  0  0  0  0  0  0  0
   -4.4011    8.8259   25.9276 H   0  0  0  0  0  0  0  0  0  0  0  0
   -3.2288    6.8184   26.5082 H   0  0  0  0  0  0  0  0  0  0  0  0
   -0.9713    5.0462   24.4028 H   0  0  0  0  0  0  0  0  0  0  0  0
   -0.7919    7.8081   26.3900 H   0  0  0  0  0  0  0  0  0  0  0  0
   -0.4600    9.3695   28.1792 H   0  0  0  0  0  0  0  0  0  0  0  0
    0.2779    9.6783   30.4850 H   0  0  0  0  0  0  0  0  0  0  0  0
    0.2530    8.4413   31.5507 H   0  0  0  0  0  0  0  0  0  0  0  0
   -1.5667   10.3931   31.2547 H   0  0  0  0  0  0  0  0  0  0  0  0
   -2.4688    8.6791   29.7144 H   0  0  0  0  0  0  0  0  0  0  0  0
   -3.4700    9.4634   30.7387 H   0  0  0  0  0  0  0  0  0  0  0  0
   -3.8353    7.0818   30.7379 H   0  0  0  0  0  0  0  0  0  0  0  0
   -2.3222    6.8848   31.3195 H   0  0  0  0  0  0  0  0  0  0  0  0
   -4.6004    7.8413   32.6075 H   0  0  0  0  0  0  0  0  0  0  0  0
   -2.3697    6.3345   33.4990 H   0  0  0  0  0  0  0  0  0  0  0  0
   -3.6919    6.6617   34.3997 H   0  0  0  0  0  0  0  0  0  0  0  0
   -3.8230    5.7289   33.0658 H   0  0  0  0  0  0  0  0  0  0  0  0
   -3.0547    8.8470   34.2495 H   0  0  0  0  0  0  0  0  0  0  0  0
   -3.5573    9.7199   32.9641 H   0  0  0  0  0  0  0  0  0  0  0  0
   -1.1677    9.8611   33.3173 H   0  0  0  0  0  0  0  0  0  0  0  0
   -1.0686    8.2640   32.9914 H   0  0  0  0  0  0  0  0  0  0  0  0
   -0.5184    6.2381   30.9035 H   0  0  0  0  0  0  0  0  0  0  0  0
   -0.8505    4.6809   29.1106 H   0  0  0  0  0  0  0  0  0  0  0  0
   -0.9885    7.1275   23.0281 H   0  0  0  0  0  0  0  0  0  0  0  0
   -1.7565   10.2739   22.1842 H   0  0  0  0  0  0  0  0  0  0  0  0
   -3.0691    5.9427   19.4426 H   0  0  0  0  0  0  0  0  0  0  0  0
   -2.5218    7.1704   17.4480 H   0  0  0  0  0  0  0  0  0  0  0  0
   -1.1225   11.3957   18.2838 H   0  0  0  0  0  0  0  0  0  0  0  0
   -0.5725   12.6235   16.2896 H   0  0  0  0  0  0  0  0  0  0  0  0
   -0.8066   11.5491   14.1635 H   0  0  0  0  0  0  0  0  0  0  0  0
   -2.0953    8.1312   15.9257 H   0  0  0  0  0  0  0  0  0  0  0  0
  1  2  1  0  0  0  0
  2  3  2  0  0  0  0
  3  4  1  0  0  0  0
  4  5  2  0  0  0  0
  5  6  1  0  0  0  0
  6  7  1  0  0  0  0
  7  8  2  0  0  0  0
  7  9  1  0  0  0  0
  9 10  2  0  0  0  0
 10 11  1  0  0  0  0
 11 12  2  0  0  0  0
 12 13  1  0  0  0  0
 13 14  1  0  0  0  0
 14 15  1  0  0  0  0
 15 16  1  0  0  0  0
 16 17  1  0  0  0  0
 17 18  1  0  0  0  0
 17 19  1  0  0  0  0
 19 20  1  0  0  0  0
 12 21  1  0  0  0  0
 21 22  2  0  0  0  0
  5 23  1  0  0  0  0
 23 24  2  0  0  0  0
 24 25  1  0  0  0  0
 25 26  1  0  0  0  0
 26 27  2  0  0  0  0
 27 28  1  0  0  0  0
 28 29  2  0  0  0  0
 29 30  1  0  0  0  0
 30 31  1  0  0  0  0
 31 32  2  0  0  0  0
 32 33  1  0  0  0  0
 33 34  2  0  0  0  0
 34 35  1  0  0  0  0
 35 36  2  0  0  0  0
 30 37  2  0  0  0  0
 24  2  1  0  0  0  0
 37 26  1  0  0  0  0
 22  9  1  0  0  0  0
 36 31  1  0  0  0  0
 20 14  1  0  0  0  0
  1 38  1  0  0  0  0
  1 39  1  0  0  0  0
  1 40  1  0  0  0  0
  3 41  1  0  0  0  0
  4 42  1  0  0  0  0
  6 43  1  0  0  0  0
 10 44  1  0  0  0  0
 11 45  1  0  0  0  0
 13 46  1  0  0  0  0
 13 47  1  0  0  0  0
 14 48  1  0  0  0  0
 15 49  1  0  0  0  0
 15 50  1  0  0  0  0
 16 51  1  0  0  0  0
 16 52  1  0  0  0  0
 17 53  1  0  0  0  0
 18 54  1  0  0  0  0
 18 55  1  0  0  0  0
 18 56  1  0  0  0  0
 19 57  1  0  0  0  0
 19 58  1  0  0  0  0
 20 59  1  0  0  0  0
 20 60  1  0  0  0  0
 21 61  1  0  0  0  0
 22 62  1  0  0  0  0
 23 63  1  0  0  0  0
 25 64  1  0  0  0  0
 28 65  1  0  0  0  0
 29 66  1  0  0  0  0
 32 67  1  0  0  0  0
 33 68  1  0  0  0  0
 34 69  1  0  0  0  0
 36 70  1  0  0  0  0
M  CHG  2  14   1  17   1
M  END
>  <docking-score>
-22.82

$$$$
3K5V_STI_3
foFlexX   03222115263D 1   1.00000     0.00000     0
FlexX 4.5.0 fol007
 70 74  0  0  0  0            999 V2000
   -4.8685   10.1973   23.9275 C   0  0  0  0  0  0  0  0  0  0  0  0
   -3.9920    8.9978   24.2492 C   0  0  0  0  0  0  0  0  0  0  0  0
   -4.1925    8.3257   25.4504 C   0  0  0  0  0  0  0  0  0  0  0  0
   -3.4054    7.2243   25.7710 C   0  0  0  0  0  0  0  0  0  0  0  0
   -2.4219    6.8066   24.8805 C   0  0  0  0  0  0  0  0  0  0  0  0
   -1.6015    5.6680   25.2024 N   0  0  0  0  0  0  0  0  0  0  0  0
   -1.2465    5.2698   26.5366 C   0  0  0  0  0  0  0  0  0  0  0  0
   -1.0486    4.0479   26.7723 O   0  0  0  0  0  0  0  0  0  0  0  0
   -1.0653    6.2568   27.6277 C   0  0  0  0  0  0  0  0  0  0  0  0
   -1.0764    7.6153   27.3275 C   0  0  0  0  0  0  0  0  0  0  0  0
   -0.9088    8.5534   28.3411 C   0  0  0  0  0  0  0  0  0  0  0  0
   -0.7314    8.1128   29.6493 C   0  0  0  0  0  0  0  0  0  0  0  0
   -0.5462    9.1266   30.7669 C   0  0  0  0  0  0  0  0  0  0  0  0
   -1.8424    9.5310   31.3724 N   0  3  0  0  0  0  0  0  0  0  0  0
   -2.1176    8.6047   32.4825 C   0  0  0  0  0  0  0  0  0  0  0  0
   -3.2480    9.1160   33.3645 C   0  0  0  0  0  0  0  0  0  0  0  0
   -3.9768   10.2225   32.7223 N   0  3  0  0  0  0  0  0  0  0  0  0
   -5.0639   10.6908   33.5942 C   0  0  0  0  0  0  0  0  0  0  0  0
   -3.0780   11.3615   32.4849 C   0  0  0  0  0  0  0  0  0  0  0  0
   -1.7514   10.9019   31.8992 C   0  0  0  0  0  0  0  0  0  0  0  0
   -0.7194    6.7557   29.9540 C   0  0  0  0  0  0  0  0  0  0  0  0
   -0.8875    5.8215   28.9367 C   0  0  0  0  0  0  0  0  0  0  0  0
   -2.2153    7.4735   23.6772 C   0  0  0  0  0  0  0  0  0  0  0  0
   -3.0062    8.5742   23.3633 C   0  0  0  0  0  0  0  0  0  0  0  0
   -2.8103    9.2556   22.1559 N   0  0  0  0  0  0  0  0  0  0  0  0
   -2.3315    8.6319   20.9565 C   0  0  0  0  0  0  0  0  0  0  0  0
   -2.0502    7.3207   20.9760 N   0  0  0  0  0  0  0  0  0  0  0  0
   -1.5994    6.6851   19.8845 C   0  0  0  0  0  0  0  0  0  0  0  0
   -1.4177    7.3962   18.7030 C   0  0  0  0  0  0  0  0  0  0  0  0
   -1.7119    8.7554   18.6924 C   0  0  0  0  0  0  0  0  0  0  0  0
   -1.5247    9.5053   17.4632 C   0  0  0  0  0  0  0  0  0  0  0  0
   -1.8147   10.8654   17.4411 C   0  0  0  0  0  0  0  0  0  0  0  0
   -1.6333   11.5802   16.2623 C   0  0  0  0  0  0  0  0  0  0  0  0
   -1.1654   10.9077   15.1383 C   0  0  0  0  0  0  0  0  0  0  0  0
   -0.8929    9.5952   15.1844 N   0  0  0  0  0  0  0  0  0  0  0  0
   -1.0592    8.8834   16.3093 C   0  0  0  0  0  0  0  0  0  0  0  0
   -2.1597    9.3286   19.8214 N   0  0  0  0  0  0  0  0  0  0  0  0
   -4.6078   10.5716   23.0376 H   0  0  0  0  0  0  0  0  0  0  0  0
   -5.8268    9.9125   23.9015 H   0  0  0  0  0  0  0  0  0  0  0  0
   -4.7477   10.8969   24.6317 H   0  0  0  0  0  0  0  0  0  0  0  0
   -4.9024    8.6343   26.0835 H   0  0  0  0  0  0  0  0  0  0  0  0
   -3.5453    6.7377   26.6333 H   0  0  0  0  0  0  0  0  0  0  0  0
   -1.2545    5.1157   24.4445 H   0  0  0  0  0  0  0  0  0  0  0  0
   -1.2048    7.9174   26.3829 H   0  0  0  0  0  0  0  0  0  0  0  0
   -0.9156    9.5314   28.1324 H   0  0  0  0  0  0  0  0  0  0  0  0
   -0.0963    9.9385   30.3950 H   0  0  0  0  0  0  0  0  0  0  0  0
    0.0298    8.7222   31.4774 H   0  0  0  0  0  0  0  0  0  0  0  0
   -2.5714    9.4741   30.6903 H   0  0  0  0  0  0  0  0  0  0  0  0
   -1.2912    8.5065   33.0369 H   0  0  0  0  0  0  0  0  0  0  0  0
   -2.3750    7.7143   32.1072 H   0  0  0  0  0  0  0  0  0  0  0  0
   -3.8860    8.3666   33.5418 H   0  0  0  0  0  0  0  0  0  0  0  0
   -2.8643    9.4388   34.2297 H   0  0  0  0  0  0  0  0  0  0  0  0
   -4.3577    9.9107   31.8519 H   0  0  0  0  0  0  0  0  0  0  0  0
   -4.6815   11.0112   34.4609 H   0  0  0  0  0  0  0  0  0  0  0  0
   -5.5502   11.4414   33.1467 H   0  0  0  0  0  0  0  0  0  0  0  0
   -5.6994    9.9386   33.7679 H   0  0  0  0  0  0  0  0  0  0  0  0
   -2.9073   11.8288   33.3523 H   0  0  0  0  0  0  0  0  0  0  0  0
   -3.5150   11.9943   31.8457 H   0  0  0  0  0  0  0  0  0  0  0  0
   -1.4925   11.5193   31.1564 H   0  0  0  0  0  0  0  0  0  0  0  0
   -1.0530   10.9298   32.6145 H   0  0  0  0  0  0  0  0  0  0  0  0
   -0.5907    6.4533   30.8985 H   0  0  0  0  0  0  0  0  0  0  0  0
   -0.8806    4.8435   29.1453 H   0  0  0  0  0  0  0  0  0  0  0  0
   -1.5055    7.1647   23.0441 H   0  0  0  0  0  0  0  0  0  0  0  0
   -3.0163   10.2338   22.1283 H   0  0  0  0  0  0  0  0  0  0  0  0
   -1.3953    5.7067   19.9199 H   0  0  0  0  0  0  0  0  0  0  0  0
   -1.0827    6.9399   17.8786 H   0  0  0  0  0  0  0  0  0  0  0  0
   -2.1499   11.3242   18.2639 H   0  0  0  0  0  0  0  0  0  0  0  0
   -1.8353   12.5588   16.2234 H   0  0  0  0  0  0  0  0  0  0  0  0
   -1.0304   11.4097   14.2840 H   0  0  0  0  0  0  0  0  0  0  0  0
   -0.8485    7.9059   16.3183 H   0  0  0  0  0  0  0  0  0  0  0  0
  1  2  1  0  0  0  0
  2  3  2  0  0  0  0
  3  4  1  0  0  0  0
  4  5  2  0  0  0  0
  5  6  1  0  0  0  0
  6  7  1  0  0  0  0
  7  8  2  0  0  0  0
  7  9  1  0  0  0  0
  9 10  2  0  0  0  0
 10 11  1  0  0  0  0
 11 12  2  0  0  0  0
 12 13  1  0  0  0  0
 13 14  1  0  0  0  0
 14 15  1  0  0  0  0
 15 16  1  0  0  0  0
 16 17  1  0  0  0  0
 17 18  1  0  0  0  0
 17 19  1  0  0  0  0
 19 20  1  0  0  0  0
 12 21  1  0  0  0  0
 21 22  2  0  0  0  0
  5 23  1  0  0  0  0
 23 24  2  0  0  0  0
 24 25  1  0  0  0  0
 25 26  1  0  0  0  0
 26 27  2  0  0  0  0
 27 28  1  0  0  0  0
 28 29  2  0  0  0  0
 29 30  1  0  0  0  0
 30 31  1  0  0  0  0
 31 32  2  0  0  0  0
 32 33  1  0  0  0  0
 33 34  2  0  0  0  0
 34 35  1  0  0  0  0
 35 36  2  0  0  0  0
 30 37  2  0  0  0  0
 24  2  1  0  0  0  0
 37 26  1  0  0  0  0
 22  9  1  0  0  0  0
 36 31  1  0  0  0  0
 20 14  1  0  0  0  0
  1 38  1  0  0  0  0
  1 39  1  0  0  0  0
  1 40  1  0  0  0  0
  3 41  1  0  0  0  0
  4 42  1  0  0  0  0
  6 43  1  0  0  0  0
 10 44  1  0  0  0  0
 11 45  1  0  0  0  0
 13 46  1  0  0  0  0
 13 47  1  0  0  0  0
 14 48  1  0  0  0  0
 15 49  1  0  0  0  0
 15 50  1  0  0  0  0
 16 51  1  0  0  0  0
 16 52  1  0  0  0  0
 17 53  1  0  0  0  0
 18 54  1  0  0  0  0
 18 55  1  0  0  0  0
 18 56  1  0  0  0  0
 19 57  1  0  0  0  0
 19 58  1  0  0  0  0
 20 59  1  0  0  0  0
 20 60  1  0  0  0  0
 21 61  1  0  0  0  0
 22 62  1  0  0  0  0
 23 63  1  0  0  0  0
 25 64  1  0  0  0  0
 28 65  1  0  0  0  0
 29 66  1  0  0  0  0
 32 67  1  0  0  0  0
 33 68  1  0  0  0  0
 34 69  1  0  0  0  0
 36 70  1  0  0  0  0
M  CHG  2  14   1  17   1
M  END
>  <docking-score>
-22.79

$$$$
