1FPU_PRC_1
foFlexX   03192112293D 1   1.00000     0.00000     0
FlexX 4.5.0 fol007
 47 50  0  0  0  0            999 V2000
   23.8619   43.7760   53.9406 C   0  0  0  0  0  0  0  0  0  0  0  0
   22.7798   43.9843   54.9877 C   0  0  0  0  0  0  0  0  0  0  0  0
   23.1259   44.5727   56.1996 C   0  0  0  0  0  0  0  0  0  0  0  0
   22.1562   44.7760   57.1762 C   0  0  0  0  0  0  0  0  0  0  0  0
   20.8446   44.3859   56.9265 C   0  0  0  0  0  0  0  0  0  0  0  0
   19.8345   44.5913   57.9291 N   0  0  0  0  0  0  0  0  0  0  0  0
   19.8839   44.0124   59.2473 C   0  0  0  0  0  0  0  0  0  0  0  0
   20.8558   43.2771   59.5751 O   0  0  0  0  0  0  0  0  0  0  0  0
   18.8140   44.2686   60.2422 C   0  0  0  0  0  0  0  0  0  0  0  0
   19.0010   43.8770   61.5635 C   0  0  0  0  0  0  0  0  0  0  0  0
   17.9961   44.1198   62.4934 C   0  0  0  0  0  0  0  0  0  0  0  0
   16.8310   44.7498   62.0689 C   0  0  0  0  0  0  0  0  0  0  0  0
   16.6740   45.1181   60.7888 N   0  0  0  0  0  0  0  0  0  0  0  0
   17.6285   44.8954   59.8727 C   0  0  0  0  0  0  0  0  0  0  0  0
   20.4906   43.7969   55.7170 C   0  0  0  0  0  0  0  0  0  0  0  0
   21.4657   43.5965   54.7450 C   0  0  0  0  0  0  0  0  0  0  0  0
   21.1247   43.0050   53.5226 N   0  0  0  0  0  0  0  0  0  0  0  0
   19.7967   42.5766   53.1911 C   0  0  0  0  0  0  0  0  0  0  0  0
   18.7559   43.1597   53.8039 N   0  0  0  0  0  0  0  0  0  0  0  0
   17.4927   42.7994   53.5337 C   0  0  0  0  0  0  0  0  0  0  0  0
   17.2503   41.7994   52.5977 C   0  0  0  0  0  0  0  0  0  0  0  0
   18.3357   41.2005   51.9675 C   0  0  0  0  0  0  0  0  0  0  0  0
   18.0914   40.1556   50.9893 C   0  0  0  0  0  0  0  0  0  0  0  0
   17.2469   39.0992   51.3136 C   0  0  0  0  0  0  0  0  0  0  0  0
   17.0148   38.1011   50.3738 C   0  0  0  0  0  0  0  0  0  0  0  0
   17.6382   38.1927   49.1339 C   0  0  0  0  0  0  0  0  0  0  0  0
   18.4487   39.2215   48.8446 N   0  0  0  0  0  0  0  0  0  0  0  0
   18.6886   40.1970   49.7337 C   0  0  0  0  0  0  0  0  0  0  0  0
   19.5746   41.6099   52.2858 N   0  0  0  0  0  0  0  0  0  0  0  0
   23.4633   43.3467   53.1302 H   0  0  0  0  0  0  0  0  0  0  0  0
   24.2571   44.6596   53.6894 H   0  0  0  0  0  0  0  0  0  0  0  0
   24.5771   43.1848   54.3134 H   0  0  0  0  0  0  0  0  0  0  0  0
   24.0718   44.8496   56.3688 H   0  0  0  0  0  0  0  0  0  0  0  0
   22.3997   45.1985   58.0492 H   0  0  0  0  0  0  0  0  0  0  0  0
   19.0521   45.1696   57.6978 H   0  0  0  0  0  0  0  0  0  0  0  0
   19.8489   43.4256   61.8418 H   0  0  0  0  0  0  0  0  0  0  0  0
   18.1089   43.8468   63.4487 H   0  0  0  0  0  0  0  0  0  0  0  0
   16.1003   44.9306   62.7273 H   0  0  0  0  0  0  0  0  0  0  0  0
   17.4876   45.1799   58.9245 H   0  0  0  0  0  0  0  0  0  0  0  0
   19.5446   43.5202   55.5478 H   0  0  0  0  0  0  0  0  0  0  0  0
   21.8468   42.8741   52.8434 H   0  0  0  0  0  0  0  0  0  0  0  0
   16.7305   43.2465   54.0018 H   0  0  0  0  0  0  0  0  0  0  0  0
   16.3154   41.5172   52.3825 H   0  0  0  0  0  0  0  0  0  0  0  0
   16.8115   39.0579   52.2129 H   0  0  0  0  0  0  0  0  0  0  0  0
   16.4114   37.3322   50.5854 H   0  0  0  0  0  0  0  0  0  0  0  0
   17.4799   37.4817   48.4487 H   0  0  0  0  0  0  0  0  0  0  0  0
   19.2965   40.9539   49.4938 H   0  0  0  0  0  0  0  0  0  0  0  0
  1  2  1  0  0  0  0
  2  3  2  0  0  0  0
  3  4  1  0  0  0  0
  4  5  2  0  0  0  0
  5  6  1  0  0  0  0
  6  7  1  0  0  0  0
  7  8  2  0  0  0  0
  7  9  1  0  0  0  0
  9 10  2  0  0  0  0
 10 11  1  0  0  0  0
 11 12  2  0  0  0  0
 12 13  1  0  0  0  0
 13 14  2  0  0  0  0
  5 15  1  0  0  0  0
 15 16  2  0  0  0  0
 16 17  1  0  0  0  0
 17 18  1  0  0  0  0
 18 19  2  0  0  0  0
 19 20  1  0  0  0  0
 20 21  2  0  0  0  0
 21 22  1  0  0  0  0
 22 23  1  0  0  0  0
 23 24  2  0  0  0  0
 24 25  1  0  0  0  0
 25 26  2  0  0  0  0
 26 27  1  0  0  0  0
 27 28  2  0  0  0  0
 22 29  2  0  0  0  0
 16  2  1  0  0  0  0
 29 18  1  0  0  0  0
 14  9  1  0  0  0  0
 28 23  1  0  0  0  0
  1 30  1  0  0  0  0
  1 31  1  0  0  0  0
  1 32  1  0  0  0  0
  3 33  1  0  0  0  0
  4 34  1  0  0  0  0
  6 35  1  0  0  0  0
 10 36  1  0  0  0  0
 11 37  1  0  0  0  0
 12 38  1  0  0  0  0
 14 39  1  0  0  0  0
 15 40  1  0  0  0  0
 17 41  1  0  0  0  0
 20 42  1  0  0  0  0
 21 43  1  0  0  0  0
 24 44  1  0  0  0  0
 25 45  1  0  0  0  0
 26 46  1  0  0  0  0
 28 47  1  0  0  0  0
M  END
>  <docking-score>
-21.19

$$$$
1FPU_PRC_2
foFlexX   03192112293D 1   1.00000     0.00000     0
FlexX 4.5.0 fol007
 47 50  0  0  0  0            999 V2000
   23.2763   43.5403   53.2038 C   0  0  0  0  0  0  0  0  0  0  0  0
   22.2598   43.6982   54.3229 C   0  0  0  0  0  0  0  0  0  0  0  0
   22.6714   44.2621   55.5259 C   0  0  0  0  0  0  0  0  0  0  0  0
   21.7626   44.4193   56.5675 C   0  0  0  0  0  0  0  0  0  0  0  0
   20.4455   44.0081   56.3911 C   0  0  0  0  0  0  0  0  0  0  0  0
   19.4979   44.1658   57.4612 N   0  0  0  0  0  0  0  0  0  0  0  0
   19.6431   43.5539   58.7572 C   0  0  0  0  0  0  0  0  0  0  0  0
   20.6481   42.8311   59.0023 O   0  0  0  0  0  0  0  0  0  0  0  0
   18.6345   43.7614   59.8248 C   0  0  0  0  0  0  0  0  0  0  0  0
   18.7027   43.0007   60.9871 C   0  0  0  0  0  0  0  0  0  0  0  0
   17.7559   43.1989   61.9859 C   0  0  0  0  0  0  0  0  0  0  0  0
   16.7667   44.1564   61.7885 C   0  0  0  0  0  0  0  0  0  0  0  0
   16.7217   44.8777   60.6585 N   0  0  0  0  0  0  0  0  0  0  0  0
   17.6234   44.7057   59.6803 C   0  0  0  0  0  0  0  0  0  0  0  0
   20.0262   43.4434   55.1909 C   0  0  0  0  0  0  0  0  0  0  0  0
   20.9406   43.2892   54.1538 C   0  0  0  0  0  0  0  0  0  0  0  0
   20.5335   42.7227   52.9398 N   0  0  0  0  0  0  0  0  0  0  0  0
   19.1955   42.2750   52.6818 C   0  0  0  0  0  0  0  0  0  0  0  0
   18.1851   42.8197   53.3753 N   0  0  0  0  0  0  0  0  0  0  0  0
   16.9144   42.4399   53.1763 C   0  0  0  0  0  0  0  0  0  0  0  0
   16.6319   41.4598   52.2305 C   0  0  0  0  0  0  0  0  0  0  0  0
   17.6862   40.9006   51.5164 C   0  0  0  0  0  0  0  0  0  0  0  0
   17.4001   39.8767   50.5275 C   0  0  0  0  0  0  0  0  0  0  0  0
   18.2277   39.7482   49.4171 C   0  0  0  0  0  0  0  0  0  0  0  0
   17.9510   38.7658   48.4728 C   0  0  0  0  0  0  0  0  0  0  0  0
   16.8497   37.9397   48.6710 C   0  0  0  0  0  0  0  0  0  0  0  0
   16.0661   38.0833   49.7501 N   0  0  0  0  0  0  0  0  0  0  0  0
   16.3119   39.0229   50.6755 C   0  0  0  0  0  0  0  0  0  0  0  0
   18.9347   41.3277   51.7664 N   0  0  0  0  0  0  0  0  0  0  0  0
   22.8350   43.1239   52.4089 H   0  0  0  0  0  0  0  0  0  0  0  0
   23.6374   44.4383   52.9523 H   0  0  0  0  0  0  0  0  0  0  0  0
   24.0253   42.9549   53.5140 H   0  0  0  0  0  0  0  0  0  0  0  0
   23.6206   44.5544   55.6422 H   0  0  0  0  0  0  0  0  0  0  0  0
   22.0533   44.8239   57.4345 H   0  0  0  0  0  0  0  0  0  0  0  0
   18.6913   44.7333   57.2961 H   0  0  0  0  0  0  0  0  0  0  0  0
   19.4247   42.3187   61.1032 H   0  0  0  0  0  0  0  0  0  0  0  0
   17.7856   42.6633   62.8299 H   0  0  0  0  0  0  0  0  0  0  0  0
   16.0795   44.3092   62.4988 H   0  0  0  0  0  0  0  0  0  0  0  0
   17.5687   45.2564   58.8473 H   0  0  0  0  0  0  0  0  0  0  0  0
   19.0769   43.1513   55.0747 H   0  0  0  0  0  0  0  0  0  0  0  0
   21.2130   42.6248   52.2127 H   0  0  0  0  0  0  0  0  0  0  0  0
   16.1752   42.8584   53.7040 H   0  0  0  0  0  0  0  0  0  0  0  0
   15.6908   41.1635   52.0675 H   0  0  0  0  0  0  0  0  0  0  0  0
   19.0133   40.3557   49.2992 H   0  0  0  0  0  0  0  0  0  0  0  0
   18.5325   38.6553   47.6668 H   0  0  0  0  0  0  0  0  0  0  0  0
   16.6393   37.2290   47.9998 H   0  0  0  0  0  0  0  0  0  0  0  0
   15.7130   39.1096   51.4716 H   0  0  0  0  0  0  0  0  0  0  0  0
  1  2  1  0  0  0  0
  2  3  2  0  0  0  0
  3  4  1  0  0  0  0
  4  5  2  0  0  0  0
  5  6  1  0  0  0  0
  6  7  1  0  0  0  0
  7  8  2  0  0  0  0
  7  9  1  0  0  0  0
  9 10  2  0  0  0  0
 10 11  1  0  0  0  0
 11 12  2  0  0  0  0
 12 13  1  0  0  0  0
 13 14  2  0  0  0  0
  5 15  1  0  0  0  0
 15 16  2  0  0  0  0
 16 17  1  0  0  0  0
 17 18  1  0  0  0  0
 18 19  2  0  0  0  0
 19 20  1  0  0  0  0
 20 21  2  0  0  0  0
 21 22  1  0  0  0  0
 22 23  1  0  0  0  0
 23 24  2  0  0  0  0
 24 25  1  0  0  0  0
 25 26  2  0  0  0  0
 26 27  1  0  0  0  0
 27 28  2  0  0  0  0
 22 29  2  0  0  0  0
 16  2  1  0  0  0  0
 29 18  1  0  0  0  0
 14  9  1  0  0  0  0
 28 23  1  0  0  0  0
  1 30  1  0  0  0  0
  1 31  1  0  0  0  0
  1 32  1  0  0  0  0
  3 33  1  0  0  0  0
  4 34  1  0  0  0  0
  6 35  1  0  0  0  0
 10 36  1  0  0  0  0
 11 37  1  0  0  0  0
 12 38  1  0  0  0  0
 14 39  1  0  0  0  0
 15 40  1  0  0  0  0
 17 41  1  0  0  0  0
 20 42  1  0  0  0  0
 21 43  1  0  0  0  0
 24 44  1  0  0  0  0
 25 45  1  0  0  0  0
 26 46  1  0  0  0  0
 28 47  1  0  0  0  0
M  END
>  <docking-score>
-20.48

$$$$
1FPU_PRC_3
foFlexX   03192112293D 1   1.00000     0.00000     0
FlexX 4.5.0 fol007
 47 50  0  0  0  0            999 V2000
   23.7654   44.1592   53.8985 C   0  0  0  0  0  0  0  0  0  0  0  0
   22.7075   44.2979   54.9812 C   0  0  0  0  0  0  0  0  0  0  0  0
   23.0719   44.8469   56.2062 C   0  0  0  0  0  0  0  0  0  0  0  0
   22.1245   44.9864   57.2153 C   0  0  0  0  0  0  0  0  0  0  0  0
   20.8166   44.5726   56.9848 C   0  0  0  0  0  0  0  0  0  0  0  0
   19.8295   44.7121   58.0211 N   0  0  0  0  0  0  0  0  0  0  0  0
   19.9293   44.0831   59.3133 C   0  0  0  0  0  0  0  0  0  0  0  0
   20.9277   43.3609   59.5856 O   0  0  0  0  0  0  0  0  0  0  0  0
   18.8810   44.2722   60.3455 C   0  0  0  0  0  0  0  0  0  0  0  0
   19.1137   43.8337   61.6447 C   0  0  0  0  0  0  0  0  0  0  0  0
   18.1289   44.0137   62.6097 C   0  0  0  0  0  0  0  0  0  0  0  0
   16.9374   44.6294   62.2417 C   0  0  0  0  0  0  0  0  0  0  0  0
   16.7363   45.0437   60.9819 N   0  0  0  0  0  0  0  0  0  0  0  0
   17.6706   44.8821   60.0328 C   0  0  0  0  0  0  0  0  0  0  0  0
   20.4444   44.0227   55.7624 C   0  0  0  0  0  0  0  0  0  0  0  0
   21.3973   43.8861   54.7579 C   0  0  0  0  0  0  0  0  0  0  0  0
   21.0378   43.3346   53.5222 N   0  0  0  0  0  0  0  0  0  0  0  0
   19.7122   42.8853   53.2088 C   0  0  0  0  0  0  0  0  0  0  0  0
   18.6745   43.4166   53.8718 N   0  0  0  0  0  0  0  0  0  0  0  0
   17.4137   43.0346   53.6207 C   0  0  0  0  0  0  0  0  0  0  0  0
   17.1706   42.0664   52.6520 C   0  0  0  0  0  0  0  0  0  0  0  0
   18.2530   41.5211   51.9700 C   0  0  0  0  0  0  0  0  0  0  0  0
   18.0081   40.5096   50.9574 C   0  0  0  0  0  0  0  0  0  0  0  0
   18.8768   40.3994   49.8768 C   0  0  0  0  0  0  0  0  0  0  0  0
   18.6394   39.4289   48.9099 C   0  0  0  0  0  0  0  0  0  0  0  0
   17.5352   38.5959   49.0560 C   0  0  0  0  0  0  0  0  0  0  0  0
   16.7116   38.7217   50.1072 N   0  0  0  0  0  0  0  0  0  0  0  0
   16.9190   39.6497   51.0536 C   0  0  0  0  0  0  0  0  0  0  0  0
   19.4895   41.9496   52.2717 N   0  0  0  0  0  0  0  0  0  0  0  0
   23.3556   43.7519   53.0823 H   0  0  0  0  0  0  0  0  0  0  0  0
   24.1315   45.0619   53.6726 H   0  0  0  0  0  0  0  0  0  0  0  0
   24.5050   43.5725   54.2283 H   0  0  0  0  0  0  0  0  0  0  0  0
   24.0149   45.1414   56.3614 H   0  0  0  0  0  0  0  0  0  0  0  0
   22.3812   45.3803   58.0979 H   0  0  0  0  0  0  0  0  0  0  0  0
   19.0270   45.2786   57.8339 H   0  0  0  0  0  0  0  0  0  0  0  0
   19.9798   43.3939   61.8823 H   0  0  0  0  0  0  0  0  0  0  0  0
   18.2745   43.7063   63.5500 H   0  0  0  0  0  0  0  0  0  0  0  0
   16.2207   44.7652   62.9257 H   0  0  0  0  0  0  0  0  0  0  0  0
   17.4969   45.2000   59.1008 H   0  0  0  0  0  0  0  0  0  0  0  0
   19.5014   43.7285   55.6073 H   0  0  0  0  0  0  0  0  0  0  0  0
   21.7441   43.2492   52.8194 H   0  0  0  0  0  0  0  0  0  0  0  0
   16.6536   43.4430   54.1262 H   0  0  0  0  0  0  0  0  0  0  0  0
   16.2375   41.7687   52.4503 H   0  0  0  0  0  0  0  0  0  0  0  0
   19.6635   41.0115   49.7963 H   0  0  0  0  0  0  0  0  0  0  0  0
   19.2508   39.3316   48.1245 H   0  0  0  0  0  0  0  0  0  0  0  0
   17.3528   37.8936   48.3679 H   0  0  0  0  0  0  0  0  0  0  0  0
   16.2906   39.7232   51.8281 H   0  0  0  0  0  0  0  0  0  0  0  0
  1  2  1  0  0  0  0
  2  3  2  0  0  0  0
  3  4  1  0  0  0  0
  4  5  2  0  0  0  0
  5  6  1  0  0  0  0
  6  7  1  0  0  0  0
  7  8  2  0  0  0  0
  7  9  1  0  0  0  0
  9 10  2  0  0  0  0
 10 11  1  0  0  0  0
 11 12  2  0  0  0  0
 12 13  1  0  0  0  0
 13 14  2  0  0  0  0
  5 15  1  0  0  0  0
 15 16  2  0  0  0  0
 16 17  1  0  0  0  0
 17 18  1  0  0  0  0
 18 19  2  0  0  0  0
 19 20  1  0  0  0  0
 20 21  2  0  0  0  0
 21 22  1  0  0  0  0
 22 23  1  0  0  0  0
 23 24  2  0  0  0  0
 24 25  1  0  0  0  0
 25 26  2  0  0  0  0
 26 27  1  0  0  0  0
 27 28  2  0  0  0  0
 22 29  2  0  0  0  0
 16  2  1  0  0  0  0
 29 18  1  0  0  0  0
 14  9  1  0  0  0  0
 28 23  1  0  0  0  0
  1 30  1  0  0  0  0
  1 31  1  0  0  0  0
  1 32  1  0  0  0  0
  3 33  1  0  0  0  0
  4 34  1  0  0  0  0
  6 35  1  0  0  0  0
 10 36  1  0  0  0  0
 11 37  1  0  0  0  0
 12 38  1  0  0  0  0
 14 39  1  0  0  0  0
 15 40  1  0  0  0  0
 17 41  1  0  0  0  0
 20 42  1  0  0  0  0
 21 43  1  0  0  0  0
 24 44  1  0  0  0  0
 25 45  1  0  0  0  0
 26 46  1  0  0  0  0
 28 47  1  0  0  0  0
M  END
>  <docking-score>
-20.34

$$$$
6HD6_FYH_1
foFlexX   03192112293D 1   1.00000     0.00000     0
FlexX 4.5.0 fol007
 47 49  0  0  0  0            999 V2000
   21.1104   44.7384   58.4106 O   0  0  0  0  0  0  0  0  0  0  0  0
   21.2335   44.7307   57.1563 C   0  0  0  0  0  0  0  0  0  0  0  0
   20.0559   44.5946   56.3455 N   0  0  0  0  0  0  0  0  0  0  0  0
   20.0342   43.9901   55.0836 C   0  0  0  0  0  0  0  0  0  0  0  0
   21.2108   43.4763   54.5475 C   0  0  0  0  0  0  0  0  0  0  0  0
   21.1987   42.8733   53.2935 C   0  0  0  0  0  0  0  0  0  0  0  0
   20.0015   42.7939   52.5899 C   0  0  0  0  0  0  0  0  0  0  0  0
   19.9756   42.1886   51.3230 O   0  0  0  0  0  0  0  0  0  0  0  0
   19.1960   41.0477   50.9709 C   0  0  0  0  0  0  0  0  0  0  0  0
   19.5464   39.9684   51.7614 F   0  0  0  0  0  0  0  0  0  0  0  0
   19.4393   40.7291   49.6491 F   0  0  0  0  0  0  0  0  0  0  0  0
   17.8492   41.3255   51.1219 F   0  0  0  0  0  0  0  0  0  0  0  0
   18.8199   43.3057   53.1180 C   0  0  0  0  0  0  0  0  0  0  0  0
   18.8412   43.9063   54.3723 C   0  0  0  0  0  0  0  0  0  0  0  0
   22.5777   44.9051   56.5574 C   0  0  0  0  0  0  0  0  0  0  0  0
   23.6409   44.1276   57.0048 C   0  0  0  0  0  0  0  0  0  0  0  0
   24.8958   44.3051   56.4309 C   0  0  0  0  0  0  0  0  0  0  0  0
   25.0960   45.2435   55.4237 C   0  0  0  0  0  0  0  0  0  0  0  0
   24.0182   46.0100   54.9912 C   0  0  0  0  0  0  0  0  0  0  0  0
   24.2251   47.0385   53.8905 C   0  0  0  0  0  0  0  0  0  0  0  0
   24.0022   46.4597   52.5447 N   0  3  0  0  0  0  0  0  0  0  0  0
   25.2282   46.5768   51.7400 C   0  0  0  0  0  0  0  0  0  0  0  0
   25.3819   45.4482   50.7285 C   0  0  0  0  0  0  0  0  0  0  0  0
   25.5376   44.1978   51.3890 O   0  0  0  0  0  0  0  0  0  0  0  0
   24.8195   44.1331   52.6172 C   0  0  0  0  0  0  0  0  0  0  0  0
   23.6010   45.0433   52.6089 C   0  0  0  0  0  0  0  0  0  0  0  0
   22.7550   45.8490   55.5513 C   0  0  0  0  0  0  0  0  0  0  0  0
   19.1957   44.9552   56.7061 H   0  0  0  0  0  0  0  0  0  0  0  0
   22.0651   43.5402   55.0634 H   0  0  0  0  0  0  0  0  0  0  0  0
   22.0408   42.5016   52.9027 H   0  0  0  0  0  0  0  0  0  0  0  0
   17.9658   43.2423   52.6017 H   0  0  0  0  0  0  0  0  0  0  0  0
   17.9990   44.2780   54.7630 H   0  0  0  0  0  0  0  0  0  0  0  0
   23.5053   43.4509   57.7285 H   0  0  0  0  0  0  0  0  0  0  0  0
   25.6651   43.7499   56.7470 H   0  0  0  0  0  0  0  0  0  0  0  0
   26.0011   45.3654   55.0164 H   0  0  0  0  0  0  0  0  0  0  0  0
   25.1621   47.3840   53.9428 H   0  0  0  0  0  0  0  0  0  0  0  0
   23.5834   47.7930   54.0283 H   0  0  0  0  0  0  0  0  0  0  0  0
   23.2747   46.9761   52.0930 H   0  0  0  0  0  0  0  0  0  0  0  0
   26.0164   46.5636   52.3552 H   0  0  0  0  0  0  0  0  0  0  0  0
   25.2047   47.4465   51.2469 H   0  0  0  0  0  0  0  0  0  0  0  0
   24.5677   45.4140   50.1488 H   0  0  0  0  0  0  0  0  0  0  0  0
   26.1873   45.6226   50.1620 H   0  0  0  0  0  0  0  0  0  0  0  0
   25.4263   44.4116   53.3617 H   0  0  0  0  0  0  0  0  0  0  0  0
   24.5188   43.1912   52.7669 H   0  0  0  0  0  0  0  0  0  0  0  0
   23.0362   44.8267   51.8126 H   0  0  0  0  0  0  0  0  0  0  0  0
   23.0725   44.8903   53.4440 H   0  0  0  0  0  0  0  0  0  0  0  0
   21.9856   46.4039   55.2351 H   0  0  0  0  0  0  0  0  0  0  0  0
  1  2  2  0  0  0  0
  2  3  1  0  0  0  0
  3  4  1  0  0  0  0
  4  5  2  0  0  0  0
  5  6  1  0  0  0  0
  6  7  2  0  0  0  0
  7  8  1  0  0  0  0
  8  9  1  0  0  0  0
  9 10  1  0  0  0  0
  9 11  1  0  0  0  0
  9 12  1  0  0  0  0
  7 13  1  0  0  0  0
 13 14  2  0  0  0  0
  2 15  1  0  0  0  0
 15 16  2  0  0  0  0
 16 17  1  0  0  0  0
 17 18  2  0  0  0  0
 18 19  1  0  0  0  0
 19 20  1  0  0  0  0
 20 21  1  0  0  0  0
 21 22  1  0  0  0  0
 22 23  1  0  0  0  0
 23 24  1  0  0  0  0
 24 25  1  0  0  0  0
 25 26  1  0  0  0  0
 19 27  2  0  0  0  0
 14  4  1  0  0  0  0
 27 15  1  0  0  0  0
 26 21  1  0  0  0  0
  3 28  1  0  0  0  0
  5 29  1  0  0  0  0
  6 30  1  0  0  0  0
 13 31  1  0  0  0  0
 14 32  1  0  0  0  0
 16 33  1  0  0  0  0
 17 34  1  0  0  0  0
 18 35  1  0  0  0  0
 20 36  1  0  0  0  0
 20 37  1  0  0  0  0
 21 38  1  0  0  0  0
 22 39  1  0  0  0  0
 22 40  1  0  0  0  0
 23 41  1  0  0  0  0
 23 42  1  0  0  0  0
 25 43  1  0  0  0  0
 25 44  1  0  0  0  0
 26 45  1  0  0  0  0
 26 46  1  0  0  0  0
 27 47  1  0  0  0  0
M  CHG  1  21   1
M  END
>  <docking-score>
-13.39

$$$$
6HD6_FYH_2
foFlexX   03192112293D 1   1.00000     0.00000     0
FlexX 4.5.0 fol007
 47 49  0  0  0  0            999 V2000
   20.9050   45.0960   58.6422 O   0  0  0  0  0  0  0  0  0  0  0  0
   21.0825   44.8547   57.4180 C   0  0  0  0  0  0  0  0  0  0  0  0
   19.9398   44.5737   56.5946 N   0  0  0  0  0  0  0  0  0  0  0  0
   19.9661   43.7450   55.4673 C   0  0  0  0  0  0  0  0  0  0  0  0
   21.1589   43.1367   55.0893 C   0  0  0  0  0  0  0  0  0  0  0  0
   21.1946   42.3110   53.9699 C   0  0  0  0  0  0  0  0  0  0  0  0
   20.0282   42.1057   53.2403 C   0  0  0  0  0  0  0  0  0  0  0  0
   20.0506   41.2753   52.1081 O   0  0  0  0  0  0  0  0  0  0  0  0
   19.2740   40.0913   51.9395 C   0  0  0  0  0  0  0  0  0  0  0  0
   19.5775   39.1768   52.9316 F   0  0  0  0  0  0  0  0  0  0  0  0
   19.5710   39.5314   50.7120 F   0  0  0  0  0  0  0  0  0  0  0  0
   17.9252   40.3964   51.9756 F   0  0  0  0  0  0  0  0  0  0  0  0
   18.8307   42.7104   53.6106 C   0  0  0  0  0  0  0  0  0  0  0  0
   18.8043   43.5340   54.7312 C   0  0  0  0  0  0  0  0  0  0  0  0
   22.4533   44.9103   56.8580 C   0  0  0  0  0  0  0  0  0  0  0  0
   23.4872   44.2264   57.4893 C   0  0  0  0  0  0  0  0  0  0  0  0
   24.7678   44.2901   56.9493 C   0  0  0  0  0  0  0  0  0  0  0  0
   25.0222   45.0241   55.7953 C   0  0  0  0  0  0  0  0  0  0  0  0
   23.9731   45.7000   55.1800 C   0  0  0  0  0  0  0  0  0  0  0  0
   24.2393   46.5051   53.9178 C   0  0  0  0  0  0  0  0  0  0  0  0
   24.7680   45.6575   52.8233 N   0  3  0  0  0  0  0  0  0  0  0  0
   25.0255   46.4352   51.6029 C   0  0  0  0  0  0  0  0  0  0  0  0
   25.5512   45.5472   50.4832 C   0  0  0  0  0  0  0  0  0  0  0  0
   25.7787   44.2158   50.9321 O   0  0  0  0  0  0  0  0  0  0  0  0
   26.5868   44.1481   52.1017 C   0  0  0  0  0  0  0  0  0  0  0  0
   26.0221   45.0025   53.2258 C   0  0  0  0  0  0  0  0  0  0  0  0
   22.6850   45.6500   55.7030 C   0  0  0  0  0  0  0  0  0  0  0  0
   19.0689   44.9977   56.8430 H   0  0  0  0  0  0  0  0  0  0  0  0
   21.9906   43.2929   55.6221 H   0  0  0  0  0  0  0  0  0  0  0  0
   22.0486   41.8704   53.6931 H   0  0  0  0  0  0  0  0  0  0  0  0
   17.9992   42.5548   53.0773 H   0  0  0  0  0  0  0  0  0  0  0  0
   17.9502   43.9745   55.0079 H   0  0  0  0  0  0  0  0  0  0  0  0
   23.3124   43.6967   58.3193 H   0  0  0  0  0  0  0  0  0  0  0  0
   25.5162   43.8011   57.3972 H   0  0  0  0  0  0  0  0  0  0  0  0
   25.9455   45.0653   55.4135 H   0  0  0  0  0  0  0  0  0  0  0  0
   24.9075   47.2197   54.1250 H   0  0  0  0  0  0  0  0  0  0  0  0
   23.3838   46.9261   53.6164 H   0  0  0  0  0  0  0  0  0  0  0  0
   24.0926   44.9505   52.6137 H   0  0  0  0  0  0  0  0  0  0  0  0
   25.7036   47.1421   51.8039 H   0  0  0  0  0  0  0  0  0  0  0  0
   24.1735   46.8656   51.3048 H   0  0  0  0  0  0  0  0  0  0  0  0
   24.8807   45.5293   49.7414 H   0  0  0  0  0  0  0  0  0  0  0  0
   26.4123   45.9270   50.1451 H   0  0  0  0  0  0  0  0  0  0  0  0
   27.5065   44.4716   51.8794 H   0  0  0  0  0  0  0  0  0  0  0  0
   26.6331   43.1976   52.4090 H   0  0  0  0  0  0  0  0  0  0  0  0
   25.8451   44.4205   54.0195 H   0  0  0  0  0  0  0  0  0  0  0  0
   26.6919   45.7038   53.4694 H   0  0  0  0  0  0  0  0  0  0  0  0
   21.9363   46.1388   55.2551 H   0  0  0  0  0  0  0  0  0  0  0  0
  1  2  2  0  0  0  0
  2  3  1  0  0  0  0
  3  4  1  0  0  0  0
  4  5  2  0  0  0  0
  5  6  1  0  0  0  0
  6  7  2  0  0  0  0
  7  8  1  0  0  0  0
  8  9  1  0  0  0  0
  9 10  1  0  0  0  0
  9 11  1  0  0  0  0
  9 12  1  0  0  0  0
  7 13  1  0  0  0  0
 13 14  2  0  0  0  0
  2 15  1  0  0  0  0
 15 16  2  0  0  0  0
 16 17  1  0  0  0  0
 17 18  2  0  0  0  0
 18 19  1  0  0  0  0
 19 20  1  0  0  0  0
 20 21  1  0  0  0  0
 21 22  1  0  0  0  0
 22 23  1  0  0  0  0
 23 24  1  0  0  0  0
 24 25  1  0  0  0  0
 25 26  1  0  0  0  0
 19 27  2  0  0  0  0
 14  4  1  0  0  0  0
 27 15  1  0  0  0  0
 26 21  1  0  0  0  0
  3 28  1  0  0  0  0
  5 29  1  0  0  0  0
  6 30  1  0  0  0  0
 13 31  1  0  0  0  0
 14 32  1  0  0  0  0
 16 33  1  0  0  0  0
 17 34  1  0  0  0  0
 18 35  1  0  0  0  0
 20 36  1  0  0  0  0
 20 37  1  0  0  0  0
 21 38  1  0  0  0  0
 22 39  1  0  0  0  0
 22 40  1  0  0  0  0
 23 41  1  0  0  0  0
 23 42  1  0  0  0  0
 25 43  1  0  0  0  0
 25 44  1  0  0  0  0
 26 45  1  0  0  0  0
 26 46  1  0  0  0  0
 27 47  1  0  0  0  0
M  CHG  1  21   1
M  END
>  <docking-score>
-13.09

$$$$
6HD6_FYH_3
foFlexX   03192112293D 1   1.00000     0.00000     0
FlexX 4.5.0 fol007
 47 49  0  0  0  0            999 V2000
   21.1479   45.0841   58.6689 O   0  0  0  0  0  0  0  0  0  0  0  0
   21.3138   45.0573   57.4198 C   0  0  0  0  0  0  0  0  0  0  0  0
   20.1582   45.0059   56.5685 N   0  0  0  0  0  0  0  0  0  0  0  0
   20.1339   44.3950   55.3097 C   0  0  0  0  0  0  0  0  0  0  0  0
   21.2853   43.7880   54.8182 C   0  0  0  0  0  0  0  0  0  0  0  0
   21.2705   43.1781   53.5676 C   0  0  0  0  0  0  0  0  0  0  0  0
   20.0960   43.1854   52.8226 C   0  0  0  0  0  0  0  0  0  0  0  0
   20.0677   42.5742   51.5586 O   0  0  0  0  0  0  0  0  0  0  0  0
   19.2151   41.4939   51.1850 C   0  0  0  0  0  0  0  0  0  0  0  0
   19.4534   40.3970   51.9929 F   0  0  0  0  0  0  0  0  0  0  0  0
   19.4791   41.1472   49.8742 F   0  0  0  0  0  0  0  0  0  0  0  0
   17.8893   41.8757   51.2868 F   0  0  0  0  0  0  0  0  0  0  0  0
   18.9398   43.7907   53.3059 C   0  0  0  0  0  0  0  0  0  0  0  0
   18.9636   44.3978   54.5572 C   0  0  0  0  0  0  0  0  0  0  0  0
   22.6875   45.1230   56.8679 C   0  0  0  0  0  0  0  0  0  0  0  0
   23.6713   44.2695   57.3566 C   0  0  0  0  0  0  0  0  0  0  0  0
   24.9554   44.3455   56.8265 C   0  0  0  0  0  0  0  0  0  0  0  0
   25.2624   45.2578   55.8223 C   0  0  0  0  0  0  0  0  0  0  0  0
   24.2628   46.1016   55.3481 C   0  0  0  0  0  0  0  0  0  0  0  0
   24.5866   47.1025   54.2502 C   0  0  0  0  0  0  0  0  0  0  0  0
   25.0622   46.4341   53.0161 N   0  3  0  0  0  0  0  0  0  0  0  0
   23.9995   45.5306   52.5384 C   0  0  0  0  0  0  0  0  0  0  0  0
   24.5097   44.1004   52.4184 C   0  0  0  0  0  0  0  0  0  0  0  0
   25.6875   44.0708   51.6250 O   0  0  0  0  0  0  0  0  0  0  0  0
   26.7300   44.9075   52.1198 C   0  0  0  0  0  0  0  0  0  0  0  0
   26.3171   45.7328   53.3311 C   0  0  0  0  0  0  0  0  0  0  0  0
   22.9721   46.0426   55.8639 C   0  0  0  0  0  0  0  0  0  0  0  0
   19.3164   45.4343   56.8966 H   0  0  0  0  0  0  0  0  0  0  0  0
   22.1235   43.7901   55.3637 H   0  0  0  0  0  0  0  0  0  0  0  0
   22.0945   42.7396   53.2088 H   0  0  0  0  0  0  0  0  0  0  0  0
   18.1019   43.7893   52.7601 H   0  0  0  0  0  0  0  0  0  0  0  0
   18.1395   44.8362   54.9159 H   0  0  0  0  0  0  0  0  0  0  0  0
   23.4587   43.6110   58.0785 H   0  0  0  0  0  0  0  0  0  0  0  0
   25.6681   43.7352   57.1725 H   0  0  0  0  0  0  0  0  0  0  0  0
   26.1879   45.3066   55.4467 H   0  0  0  0  0  0  0  0  0  0  0  0
   25.2999   47.7222   54.5777 H   0  0  0  0  0  0  0  0  0  0  0  0
   23.7621   47.6265   54.0369 H   0  0  0  0  0  0  0  0  0  0  0  0
   25.2412   47.1267   52.3173 H   0  0  0  0  0  0  0  0  0  0  0  0
   23.6850   45.8415   51.6415 H   0  0  0  0  0  0  0  0  0  0  0  0
   23.2370   45.5523   53.1850 H   0  0  0  0  0  0  0  0  0  0  0  0
   24.7152   43.7444   53.3300 H   0  0  0  0  0  0  0  0  0  0  0  0
   23.8069   43.5328   51.9895 H   0  0  0  0  0  0  0  0  0  0  0  0
   27.0087   45.5322   51.3904 H   0  0  0  0  0  0  0  0  0  0  0  0
   27.5045   44.3302   52.3783 H   0  0  0  0  0  0  0  0  0  0  0  0
   26.1782   45.1307   54.1173 H   0  0  0  0  0  0  0  0  0  0  0  0
   27.0314   46.3995   53.5437 H   0  0  0  0  0  0  0  0  0  0  0  0
   22.2593   46.6527   55.5179 H   0  0  0  0  0  0  0  0  0  0  0  0
  1  2  2  0  0  0  0
  2  3  1  0  0  0  0
  3  4  1  0  0  0  0
  4  5  2  0  0  0  0
  5  6  1  0  0  0  0
  6  7  2  0  0  0  0
  7  8  1  0  0  0  0
  8  9  1  0  0  0  0
  9 10  1  0  0  0  0
  9 11  1  0  0  0  0
  9 12  1  0  0  0  0
  7 13  1  0  0  0  0
 13 14  2  0  0  0  0
  2 15  1  0  0  0  0
 15 16  2  0  0  0  0
 16 17  1  0  0  0  0
 17 18  2  0  0  0  0
 18 19  1  0  0  0  0
 19 20  1  0  0  0  0
 20 21  1  0  0  0  0
 21 22  1  0  0  0  0
 22 23  1  0  0  0  0
 23 24  1  0  0  0  0
 24 25  1  0  0  0  0
 25 26  1  0  0  0  0
 19 27  2  0  0  0  0
 14  4  1  0  0  0  0
 27 15  1  0  0  0  0
 26 21  1  0  0  0  0
  3 28  1  0  0  0  0
  5 29  1  0  0  0  0
  6 30  1  0  0  0  0
 13 31  1  0  0  0  0
 14 32  1  0  0  0  0
 16 33  1  0  0  0  0
 17 34  1  0  0  0  0
 18 35  1  0  0  0  0
 20 36  1  0  0  0  0
 20 37  1  0  0  0  0
 21 38  1  0  0  0  0
 22 39  1  0  0  0  0
 22 40  1  0  0  0  0
 23 41  1  0  0  0  0
 23 42  1  0  0  0  0
 25 43  1  0  0  0  0
 25 44  1  0  0  0  0
 26 45  1  0  0  0  0
 26 46  1  0  0  0  0
 27 47  1  0  0  0  0
M  CHG  1  21   1
M  END
>  <docking-score>
-12.99

$$$$
6HD4_FYW_1
foFlexX   03192112293D 1   1.00000     0.00000     0
FlexX 4.5.0 fol007
 50 53  0  0  0  0            999 V2000
   20.9635   43.6252   53.1640 O   0  0  0  0  0  0  0  0  0  0  0  0
   20.2589   43.4518   54.1960 C   0  0  0  0  0  0  0  0  0  0  0  0
   19.1506   42.5323   54.1621 N   0  0  0  0  0  0  0  0  0  0  0  0
   18.7760   41.7727   53.0003 C   0  0  0  0  0  0  0  0  0  0  0  0
   19.7510   41.3954   52.0823 C   0  0  0  0  0  0  0  0  0  0  0  0
   19.3979   40.6600   50.9551 C   0  0  0  0  0  0  0  0  0  0  0  0
   18.0653   40.3115   50.7619 C   0  0  0  0  0  0  0  0  0  0  0  0
   17.7097   39.5991   49.6724 O   0  0  0  0  0  0  0  0  0  0  0  0
   17.0877   38.3161   49.6939 C   0  0  0  0  0  0  0  0  0  0  0  0
   15.8833   38.4131   50.3634 F   0  0  0  0  0  0  0  0  0  0  0  0
   16.8466   37.8815   48.4028 F   0  0  0  0  0  0  0  0  0  0  0  0
   17.8934   37.4066   50.3553 F   0  0  0  0  0  0  0  0  0  0  0  0
   17.0831   40.6850   51.6745 C   0  0  0  0  0  0  0  0  0  0  0  0
   17.4452   41.4197   52.7987 C   0  0  0  0  0  0  0  0  0  0  0  0
   20.5824   44.1969   55.3980 C   0  0  0  0  0  0  0  0  0  0  0  0
   19.6138   44.9055   56.1017 C   0  0  0  0  0  0  0  0  0  0  0  0
   19.9294   45.5890   57.2121 N   0  0  0  0  0  0  0  0  0  0  0  0
   21.1846   45.6163   57.6847 C   0  0  0  0  0  0  0  0  0  0  0  0
   21.4792   46.3400   58.8467 N   0  0  0  0  0  0  0  0  0  0  0  0
   22.5415   46.0113   59.8041 C   0  0  0  0  0  0  0  0  0  0  0  0
   23.0365   47.3839   60.2080 C   0  0  0  0  0  0  0  0  0  0  0  0
   21.7882   48.2541   60.2217 C   0  0  2  0  0  0  0  0  0  0  0  0
   21.2374   48.3338   61.5284 O   0  0  0  0  0  0  0  0  0  0  0  0
   20.7992   47.5436   59.3155 C   0  0  0  0  0  0  0  0  0  0  0  0
   22.1936   44.9257   57.0205 C   0  0  0  0  0  0  0  0  0  0  0  0
   23.5617   44.9324   57.5014 C   0  0  0  0  0  0  0  0  0  0  0  0
   24.1326   43.7877   58.0471 C   0  0  0  0  0  0  0  0  0  0  0  0
   25.4000   43.8141   58.4836 N   0  0  0  0  0  0  0  0  0  0  0  0
   26.1381   44.9315   58.4065 C   0  0  0  0  0  0  0  0  0  0  0  0
   25.6111   46.0483   57.8838 N   0  0  0  0  0  0  0  0  0  0  0  0
   24.3500   46.0756   57.4318 C   0  0  0  0  0  0  0  0  0  0  0  0
   21.8917   44.2094   55.8672 C   0  0  0  0  0  0  0  0  0  0  0  0
   18.6101   42.4156   54.9954 H   0  0  0  0  0  0  0  0  0  0  0  0
   20.7056   41.6528   52.2326 H   0  0  0  0  0  0  0  0  0  0  0  0
   20.0939   40.3854   50.2917 H   0  0  0  0  0  0  0  0  0  0  0  0
   16.1285   40.4282   51.5237 H   0  0  0  0  0  0  0  0  0  0  0  0
   16.7491   41.6943   53.4620 H   0  0  0  0  0  0  0  0  0  0  0  0
   18.6687   44.9054   55.7750 H   0  0  0  0  0  0  0  0  0  0  0  0
   23.2673   45.4759   59.3720 H   0  0  0  0  0  0  0  0  0  0  0  0
   22.1800   45.5095   60.5899 H   0  0  0  0  0  0  0  0  0  0  0  0
   23.4564   47.3548   61.1151 H   0  0  0  0  0  0  0  0  0  0  0  0
   23.7001   47.7292   59.5444 H   0  0  0  0  0  0  0  0  0  0  0  0
   21.9930   49.1677   59.8705 H   0  0  0  0  0  0  0  0  0  0  0  0
   20.3787   48.8453   61.4975 H   0  0  0  0  0  0  0  0  0  0  0  0
   19.9735   47.3006   59.8245 H   0  0  0  0  0  0  0  0  0  0  0  0
   20.5541   48.1282   58.5420 H   0  0  0  0  0  0  0  0  0  0  0  0
   23.5981   42.9452   58.1138 H   0  0  0  0  0  0  0  0  0  0  0  0
   27.0813   44.9317   58.7388 H   0  0  0  0  0  0  0  0  0  0  0  0
   23.9758   46.9182   57.0445 H   0  0  0  0  0  0  0  0  0  0  0  0
   22.6079   43.7089   55.3808 H   0  0  0  0  0  0  0  0  0  0  0  0
  1  2  2  0  0  0  0
  2  3  1  0  0  0  0
  3  4  1  0  0  0  0
  4  5  2  0  0  0  0
  5  6  1  0  0  0  0
  6  7  2  0  0  0  0
  7  8  1  0  0  0  0
  8  9  1  0  0  0  0
  9 10  1  0  0  0  0
  9 11  1  0  0  0  0
  9 12  1  0  0  0  0
  7 13  1  0  0  0  0
 13 14  2  0  0  0  0
  2 15  1  0  0  0  0
 15 16  2  0  0  0  0
 16 17  1  0  0  0  0
 17 18  2  0  0  0  0
 18 19  1  0  0  0  0
 19 20  1  0  0  0  0
 20 21  1  0  0  0  0
 21 22  1  0  0  0  0
 22 23  1  0  0  0  0
 22 24  1  0  0  0  0
 18 25  1  0  0  0  0
 25 26  1  0  0  0  0
 26 27  2  0  0  0  0
 27 28  1  0  0  0  0
 28 29  2  0  0  0  0
 29 30  1  0  0  0  0
 30 31  2  0  0  0  0
 25 32  2  0  0  0  0
 14  4  1  0  0  0  0
 32 15  1  0  0  0  0
 24 19  1  0  0  0  0
 31 26  1  0  0  0  0
  3 33  1  0  0  0  0
  5 34  1  0  0  0  0
  6 35  1  0  0  0  0
 13 36  1  0  0  0  0
 14 37  1  0  0  0  0
 16 38  1  0  0  0  0
 20 39  1  0  0  0  0
 20 40  1  0  0  0  0
 21 41  1  0  0  0  0
 21 42  1  0  0  0  0
 22 43  1  0  0  0  0
 23 44  1  0  0  0  0
 24 45  1  0  0  0  0
 24 46  1  0  0  0  0
 27 47  1  0  0  0  0
 29 48  1  0  0  0  0
 31 49  1  0  0  0  0
 32 50  1  0  0  0  0
M  END
>  <docking-score>
-18.40

$$$$
6HD4_FYW_2
foFlexX   03192112293D 1   1.00000     0.00000     0
FlexX 4.5.0 fol007
 50 53  0  0  0  0            999 V2000
   20.6709   43.7542   53.0249 O   0  0  0  0  0  0  0  0  0  0  0  0
   20.0156   43.4944   54.0711 C   0  0  0  0  0  0  0  0  0  0  0  0
   18.8575   42.6408   53.9992 N   0  0  0  0  0  0  0  0  0  0  0  0
   18.3778   42.0435   52.7826 C   0  0  0  0  0  0  0  0  0  0  0  0
   19.2783   41.7305   51.7692 C   0  0  0  0  0  0  0  0  0  0  0  0
   18.8231   41.1520   50.5883 C   0  0  0  0  0  0  0  0  0  0  0  0
   17.4645   40.8945   50.4382 C   0  0  0  0  0  0  0  0  0  0  0  0
   17.0103   40.3345   49.2975 O   0  0  0  0  0  0  0  0  0  0  0  0
   16.8828   38.9341   49.0611 C   0  0  0  0  0  0  0  0  0  0  0  0
   16.0153   38.3994   49.9937 F   0  0  0  0  0  0  0  0  0  0  0  0
   16.3714   38.7088   47.7956 F   0  0  0  0  0  0  0  0  0  0  0  0
   18.1130   38.3147   49.1902 F   0  0  0  0  0  0  0  0  0  0  0  0
   16.5565   41.2048   51.4461 C   0  0  0  0  0  0  0  0  0  0  0  0
   17.0203   41.7825   52.6234 C   0  0  0  0  0  0  0  0  0  0  0  0
   20.4459   44.0751   55.3290 C   0  0  0  0  0  0  0  0  0  0  0  0
   19.5585   44.7419   56.1678 C   0  0  0  0  0  0  0  0  0  0  0  0
   19.9724   45.2727   57.3283 N   0  0  0  0  0  0  0  0  0  0  0  0
   21.2512   45.1823   57.7232 C   0  0  0  0  0  0  0  0  0  0  0  0
   21.6493   45.7478   58.9407 N   0  0  0  0  0  0  0  0  0  0  0  0
   21.6481   45.0756   60.2361 C   0  0  0  0  0  0  0  0  0  0  0  0
   21.1908   46.1844   61.1620 C   0  0  0  0  0  0  0  0  0  0  0  0
   21.8700   47.4306   60.6098 C   0  0  2  0  0  0  0  0  0  0  0  0
   20.9860   48.5343   60.7486 O   0  0  0  0  0  0  0  0  0  0  0  0
   22.1384   47.1123   59.1505 C   0  0  0  0  0  0  0  0  0  0  0  0
   22.1821   44.5267   56.9232 C   0  0  0  0  0  0  0  0  0  0  0  0
   23.5729   44.4094   57.3170 C   0  0  0  0  0  0  0  0  0  0  0  0
   23.9205   43.9511   58.5831 C   0  0  0  0  0  0  0  0  0  0  0  0
   25.2123   43.8476   58.9267 N   0  0  0  0  0  0  0  0  0  0  0  0
   26.1881   44.1803   58.0685 C   0  0  0  0  0  0  0  0  0  0  0  0
   25.8792   44.6241   56.8414 N   0  0  0  0  0  0  0  0  0  0  0  0
   24.6043   44.7452   56.4471 C   0  0  0  0  0  0  0  0  0  0  0  0
   21.7777   43.9678   55.7155 C   0  0  0  0  0  0  0  0  0  0  0  0
   18.3581   42.4527   54.8449 H   0  0  0  0  0  0  0  0  0  0  0  0
   20.2525   41.9212   51.8895 H   0  0  0  0  0  0  0  0  0  0  0  0
   19.4652   40.9242   49.8563 H   0  0  0  0  0  0  0  0  0  0  0  0
   15.5821   41.0147   51.3255 H   0  0  0  0  0  0  0  0  0  0  0  0
   16.3782   42.0102   53.3553 H   0  0  0  0  0  0  0  0  0  0  0  0
   18.5983   44.8268   55.9018 H   0  0  0  0  0  0  0  0  0  0  0  0
   22.5627   44.7525   60.4793 H   0  0  0  0  0  0  0  0  0  0  0  0
   21.0092   44.3064   60.2463 H   0  0  0  0  0  0  0  0  0  0  0  0
   20.1958   46.2810   61.1363 H   0  0  0  0  0  0  0  0  0  0  0  0
   21.4843   46.0065   62.1013 H   0  0  0  0  0  0  0  0  0  0  0  0
   22.7275   47.6057   61.0936 H   0  0  0  0  0  0  0  0  0  0  0  0
   20.1670   48.2452   61.2442 H   0  0  0  0  0  0  0  0  0  0  0  0
   21.6480   47.7524   58.5590 H   0  0  0  0  0  0  0  0  0  0  0  0
   23.1183   47.1641   58.9577 H   0  0  0  0  0  0  0  0  0  0  0  0
   23.2073   43.6990   59.2371 H   0  0  0  0  0  0  0  0  0  0  0  0
   27.1459   44.0975   58.3439 H   0  0  0  0  0  0  0  0  0  0  0  0
   24.3947   45.0770   55.5274 H   0  0  0  0  0  0  0  0  0  0  0  0
   22.4370   43.4941   55.1317 H   0  0  0  0  0  0  0  0  0  0  0  0
  1  2  2  0  0  0  0
  2  3  1  0  0  0  0
  3  4  1  0  0  0  0
  4  5  2  0  0  0  0
  5  6  1  0  0  0  0
  6  7  2  0  0  0  0
  7  8  1  0  0  0  0
  8  9  1  0  0  0  0
  9 10  1  0  0  0  0
  9 11  1  0  0  0  0
  9 12  1  0  0  0  0
  7 13  1  0  0  0  0
 13 14  2  0  0  0  0
  2 15  1  0  0  0  0
 15 16  2  0  0  0  0
 16 17  1  0  0  0  0
 17 18  2  0  0  0  0
 18 19  1  0  0  0  0
 19 20  1  0  0  0  0
 20 21  1  0  0  0  0
 21 22  1  0  0  0  0
 22 23  1  0  0  0  0
 22 24  1  0  0  0  0
 18 25  1  0  0  0  0
 25 26  1  0  0  0  0
 26 27  2  0  0  0  0
 27 28  1  0  0  0  0
 28 29  2  0  0  0  0
 29 30  1  0  0  0  0
 30 31  2  0  0  0  0
 25 32  2  0  0  0  0
 14  4  1  0  0  0  0
 32 15  1  0  0  0  0
 24 19  1  0  0  0  0
 31 26  1  0  0  0  0
  3 33  1  0  0  0  0
  5 34  1  0  0  0  0
  6 35  1  0  0  0  0
 13 36  1  0  0  0  0
 14 37  1  0  0  0  0
 16 38  1  0  0  0  0
 20 39  1  0  0  0  0
 20 40  1  0  0  0  0
 21 41  1  0  0  0  0
 21 42  1  0  0  0  0
 22 43  1  0  0  0  0
 23 44  1  0  0  0  0
 24 45  1  0  0  0  0
 24 46  1  0  0  0  0
 27 47  1  0  0  0  0
 29 48  1  0  0  0  0
 31 49  1  0  0  0  0
 32 50  1  0  0  0  0
M  END
>  <docking-score>
-17.32

$$$$
6HD4_FYW_3
foFlexX   03192112293D 1   1.00000     0.00000     0
FlexX 4.5.0 fol007
 50 53  0  0  0  0            999 V2000
   20.5450   43.4417   53.2172 O   0  0  0  0  0  0  0  0  0  0  0  0
   19.9162   43.2482   54.2935 C   0  0  0  0  0  0  0  0  0  0  0  0
   18.7521   42.3998   54.3021 N   0  0  0  0  0  0  0  0  0  0  0  0
   18.2372   41.7355   53.1356 C   0  0  0  0  0  0  0  0  0  0  0  0
   18.1540   40.3468   53.1163 C   0  0  0  0  0  0  0  0  0  0  0  0
   17.6569   39.6952   51.9918 C   0  0  0  0  0  0  0  0  0  0  0  0
   17.2484   40.4483   50.8960 C   0  0  0  0  0  0  0  0  0  0  0  0
   16.7652   39.8284   49.7990 O   0  0  0  0  0  0  0  0  0  0  0  0
   17.4793   38.8834   49.0050 C   0  0  0  0  0  0  0  0  0  0  0  0
   17.8297   37.8069   49.7965 F   0  0  0  0  0  0  0  0  0  0  0  0
   16.6823   38.4335   47.9676 F   0  0  0  0  0  0  0  0  0  0  0  0
   18.6314   39.4589   48.4998 F   0  0  0  0  0  0  0  0  0  0  0  0
   17.3286   41.8376   50.9061 C   0  0  0  0  0  0  0  0  0  0  0  0
   17.8265   42.4806   52.0346 C   0  0  0  0  0  0  0  0  0  0  0  0
   20.3826   43.8986   55.5036 C   0  0  0  0  0  0  0  0  0  0  0  0
   19.5213   44.6195   56.3245 C   0  0  0  0  0  0  0  0  0  0  0  0
   19.9684   45.2145   57.4406 N   0  0  0  0  0  0  0  0  0  0  0  0
   21.2568   45.1386   57.8068 C   0  0  0  0  0  0  0  0  0  0  0  0
   21.6899   45.7718   58.9781 N   0  0  0  0  0  0  0  0  0  0  0  0
   21.7192   45.1767   60.3104 C   0  0  0  0  0  0  0  0  0  0  0  0
   21.2925   46.3409   61.1811 C   0  0  0  0  0  0  0  0  0  0  0  0
   21.9635   47.5480   60.5392 C   0  0  2  0  0  0  0  0  0  0  0  0
   21.0893   48.6639   60.6358 O   0  0  0  0  0  0  0  0  0  0  0  0
   22.1916   47.1428   59.0946 C   0  0  0  0  0  0  0  0  0  0  0  0
   22.1627   44.4309   57.0227 C   0  0  0  0  0  0  0  0  0  0  0  0
   23.5627   44.3273   57.3863 C   0  0  0  0  0  0  0  0  0  0  0  0
   23.9412   43.9417   58.6678 C   0  0  0  0  0  0  0  0  0  0  0  0
   25.2411   43.8496   58.9830 N   0  0  0  0  0  0  0  0  0  0  0  0
   26.1957   44.1247   58.0817 C   0  0  0  0  0  0  0  0  0  0  0  0
   25.8568   44.4979   56.8391 N   0  0  0  0  0  0  0  0  0  0  0  0
   24.5726   44.6044   56.4717 C   0  0  0  0  0  0  0  0  0  0  0  0
   21.7235   43.8050   55.8609 C   0  0  0  0  0  0  0  0  0  0  0  0
   18.2742   42.2650   55.1701 H   0  0  0  0  0  0  0  0  0  0  0  0
   18.4514   39.8170   53.9106 H   0  0  0  0  0  0  0  0  0  0  0  0
   17.5940   38.6974   51.9717 H   0  0  0  0  0  0  0  0  0  0  0  0
   17.0319   42.3674   50.1116 H   0  0  0  0  0  0  0  0  0  0  0  0
   17.8893   43.4784   52.0546 H   0  0  0  0  0  0  0  0  0  0  0  0
   18.5548   44.6952   56.0791 H   0  0  0  0  0  0  0  0  0  0  0  0
   22.6382   44.8621   60.5482 H   0  0  0  0  0  0  0  0  0  0  0  0
   21.0767   44.4138   60.3823 H   0  0  0  0  0  0  0  0  0  0  0  0
   20.2977   46.4427   61.1757 H   0  0  0  0  0  0  0  0  0  0  0  0
   21.6096   46.2163   62.1213 H   0  0  0  0  0  0  0  0  0  0  0  0
   22.8343   47.7452   60.9893 H   0  0  0  0  0  0  0  0  0  0  0  0
   20.2822   48.4100   61.1687 H   0  0  0  0  0  0  0  0  0  0  0  0
   21.6892   47.7505   58.4795 H   0  0  0  0  0  0  0  0  0  0  0  0
   23.1663   47.1765   58.8737 H   0  0  0  0  0  0  0  0  0  0  0  0
   23.2441   43.7332   59.3538 H   0  0  0  0  0  0  0  0  0  0  0  0
   27.1599   44.0515   58.3364 H   0  0  0  0  0  0  0  0  0  0  0  0
   24.3406   44.8832   55.5398 H   0  0  0  0  0  0  0  0  0  0  0  0
   22.3647   43.2933   55.2889 H   0  0  0  0  0  0  0  0  0  0  0  0
  1  2  2  0  0  0  0
  2  3  1  0  0  0  0
  3  4  1  0  0  0  0
  4  5  2  0  0  0  0
  5  6  1  0  0  0  0
  6  7  2  0  0  0  0
  7  8  1  0  0  0  0
  8  9  1  0  0  0  0
  9 10  1  0  0  0  0
  9 11  1  0  0  0  0
  9 12  1  0  0  0  0
  7 13  1  0  0  0  0
 13 14  2  0  0  0  0
  2 15  1  0  0  0  0
 15 16  2  0  0  0  0
 16 17  1  0  0  0  0
 17 18  2  0  0  0  0
 18 19  1  0  0  0  0
 19 20  1  0  0  0  0
 20 21  1  0  0  0  0
 21 22  1  0  0  0  0
 22 23  1  0  0  0  0
 22 24  1  0  0  0  0
 18 25  1  0  0  0  0
 25 26  1  0  0  0  0
 26 27  2  0  0  0  0
 27 28  1  0  0  0  0
 28 29  2  0  0  0  0
 29 30  1  0  0  0  0
 30 31  2  0  0  0  0
 25 32  2  0  0  0  0
 14  4  1  0  0  0  0
 32 15  1  0  0  0  0
 24 19  1  0  0  0  0
 31 26  1  0  0  0  0
  3 33  1  0  0  0  0
  5 34  1  0  0  0  0
  6 35  1  0  0  0  0
 13 36  1  0  0  0  0
 14 37  1  0  0  0  0
 16 38  1  0  0  0  0
 20 39  1  0  0  0  0
 20 40  1  0  0  0  0
 21 41  1  0  0  0  0
 21 42  1  0  0  0  0
 22 43  1  0  0  0  0
 23 44  1  0  0  0  0
 24 45  1  0  0  0  0
 24 46  1  0  0  0  0
 27 47  1  0  0  0  0
 29 48  1  0  0  0  0
 31 49  1  0  0  0  0
 32 50  1  0  0  0  0
M  END
>  <docking-score>
-15.50

$$$$
2QOH_P3Y_1
foFlexX   03192112293D 1   1.00000     0.00000     0
FlexX 4.5.0 fol007
 48 51  0  0  0  0            999 V2000
   19.5915   44.7547   62.8863 C   0  0  0  0  0  0  0  0  0  0  0  0
   20.3053   44.8456   61.6578 O   0  0  0  0  0  0  0  0  0  0  0  0
   20.8181   45.9872   61.1504 C   0  0  0  0  0  0  0  0  0  0  0  0
   21.2272   46.9827   62.0313 C   0  0  0  0  0  0  0  0  0  0  0  0
   21.7596   48.1706   61.5401 C   0  0  0  0  0  0  0  0  0  0  0  0
   21.8825   48.3629   60.1680 C   0  0  0  0  0  0  0  0  0  0  0  0
   21.4738   47.3672   59.2863 C   0  0  0  0  0  0  0  0  0  0  0  0
   20.9411   46.1796   59.7776 C   0  0  0  0  0  0  0  0  0  0  0  0
   20.5142   45.1413   58.8583 C   0  0  0  0  0  0  0  0  0  0  0  0
   19.3933   44.3787   59.0039 C   0  0  0  0  0  0  0  0  0  0  0  0
   19.3504   43.5281   57.9392 N   0  0  0  0  0  0  0  0  0  0  0  0
   20.4374   43.7482   57.1271 C   0  0  0  0  0  0  0  0  0  0  0  0
   20.8744   43.2052   55.9791 N   0  0  0  0  0  0  0  0  0  0  0  0
   21.9980   43.6214   55.3731 C   0  0  0  0  0  0  0  0  0  0  0  0
   22.7772   44.6454   55.9050 C   0  0  0  0  0  0  0  0  0  0  0  0
   23.9948   45.1262   55.2815 C   0  0  0  0  0  0  0  0  0  0  0  0
   25.0392   45.6485   56.0373 C   0  0  0  0  0  0  0  0  0  0  0  0
   26.1584   46.0885   55.4429 N   0  0  0  0  0  0  0  0  0  0  0  0
   26.3084   46.0397   54.1109 C   0  0  0  0  0  0  0  0  0  0  0  0
   25.2957   45.5272   53.3073 C   0  0  0  0  0  0  0  0  0  0  0  0
   25.4406   45.4643   51.8364 C   0  0  0  0  0  0  0  0  0  0  0  0
   25.9420   44.4305   51.3143 O   0  0  0  0  0  0  0  0  0  0  0  0
   25.0293   46.5568   50.9917 N   0  0  0  0  0  0  0  0  0  0  0  0
   24.4481   47.7547   51.5994 C   0  0  0  0  0  0  0  0  0  0  0  0
   24.8841   46.3469   49.5479 C   0  0  0  0  0  0  0  0  0  0  0  0
   24.1248   45.0645   53.8982 C   0  0  0  0  0  0  0  0  0  0  0  0
   22.3555   45.2291   57.0924 C   0  0  0  0  0  0  0  0  0  0  0  0
   21.1854   44.7579   57.6739 C   0  0  0  0  0  0  0  0  0  0  0  0
   18.7784   45.3352   62.8431 H   0  0  0  0  0  0  0  0  0  0  0  0
   19.3159   43.8062   63.0423 H   0  0  0  0  0  0  0  0  0  0  0  0
   20.1788   45.0588   63.6363 H   0  0  0  0  0  0  0  0  0  0  0  0
   21.1387   46.8448   63.0178 H   0  0  0  0  0  0  0  0  0  0  0  0
   22.0540   48.8862   62.1736 H   0  0  0  0  0  0  0  0  0  0  0  0
   22.2646   49.2170   59.8151 H   0  0  0  0  0  0  0  0  0  0  0  0
   21.5629   47.5051   58.2999 H   0  0  0  0  0  0  0  0  0  0  0  0
   18.7291   44.4329   59.7496 H   0  0  0  0  0  0  0  0  0  0  0  0
   18.6367   42.8474   57.7742 H   0  0  0  0  0  0  0  0  0  0  0  0
   22.2820   43.1854   54.5191 H   0  0  0  0  0  0  0  0  0  0  0  0
   24.9549   45.6965   57.0326 H   0  0  0  0  0  0  0  0  0  0  0  0
   27.1533   46.3739   53.6932 H   0  0  0  0  0  0  0  0  0  0  0  0
   25.1093   48.1637   52.2283 H   0  0  0  0  0  0  0  0  0  0  0  0
   24.2176   48.4135   50.8833 H   0  0  0  0  0  0  0  0  0  0  0  0
   23.6202   47.5054   52.1019 H   0  0  0  0  0  0  0  0  0  0  0  0
   24.1979   45.6388   49.3814 H   0  0  0  0  0  0  0  0  0  0  0  0
   24.5944   47.2003   49.1145 H   0  0  0  0  0  0  0  0  0  0  0  0
   25.7608   46.0585   49.1631 H   0  0  0  0  0  0  0  0  0  0  0  0
   23.3863   44.6924   53.3360 H   0  0  0  0  0  0  0  0  0  0  0  0
   22.8793   45.9677   57.5168 H   0  0  0  0  0  0  0  0  0  0  0  0
  1  2  1  0  0  0  0
  2  3  1  0  0  0  0
  3  4  2  0  0  0  0
  4  5  1  0  0  0  0
  5  6  2  0  0  0  0
  6  7  1  0  0  0  0
  7  8  2  0  0  0  0
  8  9  1  0  0  0  0
  9 10  2  0  0  0  0
 10 11  1  0  0  0  0
 11 12  1  0  0  0  0
 12 13  2  0  0  0  0
 13 14  1  0  0  0  0
 14 15  2  0  0  0  0
 15 16  1  0  0  0  0
 16 17  2  0  0  0  0
 17 18  1  0  0  0  0
 18 19  2  0  0  0  0
 19 20  1  0  0  0  0
 20 21  1  0  0  0  0
 21 22  2  0  0  0  0
 21 23  1  0  0  0  0
 23 24  1  0  0  0  0
 23 25  1  0  0  0  0
 20 26  2  0  0  0  0
 15 27  1  0  0  0  0
 27 28  2  0  0  0  0
  8  3  1  0  0  0  0
 28  9  1  0  0  0  0
 28 12  1  0  0  0  0
 26 16  1  0  0  0  0
  1 29  1  0  0  0  0
  1 30  1  0  0  0  0
  1 31  1  0  0  0  0
  4 32  1  0  0  0  0
  5 33  1  0  0  0  0
  6 34  1  0  0  0  0
  7 35  1  0  0  0  0
 10 36  1  0  0  0  0
 11 37  1  0  0  0  0
 14 38  1  0  0  0  0
 17 39  1  0  0  0  0
 19 40  1  0  0  0  0
 24 41  1  0  0  0  0
 24 42  1  0  0  0  0
 24 43  1  0  0  0  0
 25 44  1  0  0  0  0
 25 45  1  0  0  0  0
 25 46  1  0  0  0  0
 26 47  1  0  0  0  0
 27 48  1  0  0  0  0
M  END
>  <docking-score>
-12.48

$$$$
2QOH_P3Y_2
foFlexX   03192112293D 1   1.00000     0.00000     0
FlexX 4.5.0 fol007
 48 51  0  0  0  0            999 V2000
   25.9262   44.5295   51.0513 C   0  0  0  0  0  0  0  0  0  0  0  0
   25.0375   44.1089   52.0810 O   0  0  0  0  0  0  0  0  0  0  0  0
   25.4019   43.8688   53.3589 C   0  0  0  0  0  0  0  0  0  0  0  0
   26.7359   44.0385   53.7142 C   0  0  0  0  0  0  0  0  0  0  0  0
   27.1432   43.7991   55.0229 C   0  0  0  0  0  0  0  0  0  0  0  0
   26.2166   43.3897   55.9760 C   0  0  0  0  0  0  0  0  0  0  0  0
   24.8820   43.2202   55.6213 C   0  0  0  0  0  0  0  0  0  0  0  0
   24.4748   43.4592   54.3126 C   0  0  0  0  0  0  0  0  0  0  0  0
   23.0837   43.2819   53.9424 C   0  0  0  0  0  0  0  0  0  0  0  0
   22.6483   42.7300   52.7741 C   0  0  0  0  0  0  0  0  0  0  0  0
   21.2855   42.7451   52.8112 N   0  0  0  0  0  0  0  0  0  0  0  0
   20.8610   43.3050   53.9926 C   0  0  0  0  0  0  0  0  0  0  0  0
   19.6564   43.5583   54.5298 N   0  0  0  0  0  0  0  0  0  0  0  0
   19.5172   44.1250   55.7391 C   0  0  0  0  0  0  0  0  0  0  0  0
   20.6213   44.4837   56.5079 C   0  0  0  0  0  0  0  0  0  0  0  0
   20.5147   45.0960   57.8215 C   0  0  0  0  0  0  0  0  0  0  0  0
   21.4866   45.9715   58.2945 C   0  0  0  0  0  0  0  0  0  0  0  0
   21.3713   46.5275   59.5098 N   0  0  0  0  0  0  0  0  0  0  0  0
   20.3236   46.2614   60.3041 C   0  0  0  0  0  0  0  0  0  0  0  0
   19.3229   45.3932   59.8811 C   0  0  0  0  0  0  0  0  0  0  0  0
   18.1824   45.0921   60.7240 C   0  0  0  0  0  0  0  0  0  0  0  0
   17.0780   44.8121   60.1821 O   0  0  0  0  0  0  0  0  0  0  0  0
   18.2818   45.1127   62.1613 N   0  0  0  0  0  0  0  0  0  0  0  0
   19.5565   44.7778   62.7976 C   0  0  0  0  0  0  0  0  0  0  0  0
   17.0629   45.1392   62.9757 C   0  0  0  0  0  0  0  0  0  0  0  0
   19.4183   44.8031   58.6253 C   0  0  0  0  0  0  0  0  0  0  0  0
   21.8829   44.2371   55.9826 C   0  0  0  0  0  0  0  0  0  0  0  0
   21.9657   43.6486   54.7272 C   0  0  0  0  0  0  0  0  0  0  0  0
   26.6421   43.8424   50.9276 H   0  0  0  0  0  0  0  0  0  0  0  0
   25.4183   44.6393   50.1969 H   0  0  0  0  0  0  0  0  0  0  0  0
   26.3424   45.4024   51.3062 H   0  0  0  0  0  0  0  0  0  0  0  0
   27.4023   44.3326   53.0291 H   0  0  0  0  0  0  0  0  0  0  0  0
   28.1023   43.9215   55.2782 H   0  0  0  0  0  0  0  0  0  0  0  0
   26.5097   43.2171   56.9164 H   0  0  0  0  0  0  0  0  0  0  0  0
   24.2156   42.9266   56.3067 H   0  0  0  0  0  0  0  0  0  0  0  0
   23.2197   42.3807   52.0314 H   0  0  0  0  0  0  0  0  0  0  0  0
   20.6858   42.4011   52.0886 H   0  0  0  0  0  0  0  0  0  0  0  0
   18.5984   44.2934   56.0962 H   0  0  0  0  0  0  0  0  0  0  0  0
   22.2783   46.1885   57.7234 H   0  0  0  0  0  0  0  0  0  0  0  0
   20.2617   46.6898   61.2056 H   0  0  0  0  0  0  0  0  0  0  0  0
   20.2603   45.4190   62.4919 H   0  0  0  0  0  0  0  0  0  0  0  0
   19.4593   44.8384   63.7910 H   0  0  0  0  0  0  0  0  0  0  0  0
   19.8209   43.8471   62.5448 H   0  0  0  0  0  0  0  0  0  0  0  0
   16.5143   44.3260   62.7813 H   0  0  0  0  0  0  0  0  0  0  0  0
   17.3097   45.1510   63.9447 H   0  0  0  0  0  0  0  0  0  0  0  0
   16.5333   45.9587   62.7566 H   0  0  0  0  0  0  0  0  0  0  0  0
   18.7079   44.1766   58.3047 H   0  0  0  0  0  0  0  0  0  0  0  0
   22.7084   44.4765   56.4937 H   0  0  0  0  0  0  0  0  0  0  0  0
  1  2  1  0  0  0  0
  2  3  1  0  0  0  0
  3  4  2  0  0  0  0
  4  5  1  0  0  0  0
  5  6  2  0  0  0  0
  6  7  1  0  0  0  0
  7  8  2  0  0  0  0
  8  9  1  0  0  0  0
  9 10  2  0  0  0  0
 10 11  1  0  0  0  0
 11 12  1  0  0  0  0
 12 13  2  0  0  0  0
 13 14  1  0  0  0  0
 14 15  2  0  0  0  0
 15 16  1  0  0  0  0
 16 17  2  0  0  0  0
 17 18  1  0  0  0  0
 18 19  2  0  0  0  0
 19 20  1  0  0  0  0
 20 21  1  0  0  0  0
 21 22  2  0  0  0  0
 21 23  1  0  0  0  0
 23 24  1  0  0  0  0
 23 25  1  0  0  0  0
 20 26  2  0  0  0  0
 15 27  1  0  0  0  0
 27 28  2  0  0  0  0
  8  3  1  0  0  0  0
 28  9  1  0  0  0  0
 28 12  1  0  0  0  0
 26 16  1  0  0  0  0
  1 29  1  0  0  0  0
  1 30  1  0  0  0  0
  1 31  1  0  0  0  0
  4 32  1  0  0  0  0
  5 33  1  0  0  0  0
  6 34  1  0  0  0  0
  7 35  1  0  0  0  0
 10 36  1  0  0  0  0
 11 37  1  0  0  0  0
 14 38  1  0  0  0  0
 17 39  1  0  0  0  0
 19 40  1  0  0  0  0
 24 41  1  0  0  0  0
 24 42  1  0  0  0  0
 24 43  1  0  0  0  0
 25 44  1  0  0  0  0
 25 45  1  0  0  0  0
 25 46  1  0  0  0  0
 26 47  1  0  0  0  0
 27 48  1  0  0  0  0
M  END
>  <docking-score>
-11.50

$$$$
2QOH_P3Y_3
foFlexX   03192112293D 1   1.00000     0.00000     0
FlexX 4.5.0 fol007
 48 51  0  0  0  0            999 V2000
   15.3416   38.9757   52.1875 C   0  0  0  0  0  0  0  0  0  0  0  0
   16.4907   39.7182   52.5818 O   0  0  0  0  0  0  0  0  0  0  0  0
   17.5848   39.9055   51.8127 C   0  0  0  0  0  0  0  0  0  0  0  0
   17.9281   38.9212   50.8920 C   0  0  0  0  0  0  0  0  0  0  0  0
   19.0496   39.0843   50.0849 C   0  0  0  0  0  0  0  0  0  0  0  0
   19.8279   40.2316   50.1989 C   0  0  0  0  0  0  0  0  0  0  0  0
   19.4846   41.2167   51.1194 C   0  0  0  0  0  0  0  0  0  0  0  0
   18.3633   41.0534   51.9267 C   0  0  0  0  0  0  0  0  0  0  0  0
   18.0055   42.0804   52.8873 C   0  0  0  0  0  0  0  0  0  0  0  0
   16.7338   42.4926   53.1560 C   0  0  0  0  0  0  0  0  0  0  0  0
   16.8240   43.4639   54.1085 N   0  0  0  0  0  0  0  0  0  0  0  0
   18.1428   43.6674   54.4384 C   0  0  0  0  0  0  0  0  0  0  0  0
   18.7793   44.4836   55.2942 N   0  0  0  0  0  0  0  0  0  0  0  0
   20.1151   44.4766   55.4301 C   0  0  0  0  0  0  0  0  0  0  0  0
   20.9194   43.6172   54.6863 C   0  0  0  0  0  0  0  0  0  0  0  0
   22.3640   43.5759   54.8046 C   0  0  0  0  0  0  0  0  0  0  0  0
   23.1701   43.2266   53.7262 C   0  0  0  0  0  0  0  0  0  0  0  0
   24.5051   43.1940   53.8543 N   0  0  0  0  0  0  0  0  0  0  0  0
   25.1038   43.4950   55.0162 C   0  0  0  0  0  0  0  0  0  0  0  0
   24.3457   43.8510   56.1266 C   0  0  0  0  0  0  0  0  0  0  0  0
   24.9857   44.1866   57.4173 C   0  0  0  0  0  0  0  0  0  0  0  0
   24.7066   43.4968   58.4366 O   0  0  0  0  0  0  0  0  0  0  0  0
   25.9117   45.2841   57.5360 N   0  0  0  0  0  0  0  0  0  0  0  0
   26.7361   45.6555   56.3851 C   0  0  0  0  0  0  0  0  0  0  0  0
   26.2641   45.8001   58.8624 C   0  0  0  0  0  0  0  0  0  0  0  0
   22.9596   43.8925   56.0208 C   0  0  0  0  0  0  0  0  0  0  0  0
   20.2945   42.7598   53.7903 C   0  0  0  0  0  0  0  0  0  0  0  0
   18.9099   42.8112   53.6924 C   0  0  0  0  0  0  0  0  0  0  0  0
   15.6068   38.0326   51.9868 H   0  0  0  0  0  0  0  0  0  0  0  0
   14.6699   38.9827   52.9282 H   0  0  0  0  0  0  0  0  0  0  0  0
   14.9411   39.3903   51.3704 H   0  0  0  0  0  0  0  0  0  0  0  0
   17.3689   38.0962   50.8101 H   0  0  0  0  0  0  0  0  0  0  0  0
   19.2963   38.3767   49.4228 H   0  0  0  0  0  0  0  0  0  0  0  0
   20.6342   40.3484   49.6191 H   0  0  0  0  0  0  0  0  0  0  0  0
   20.0436   42.0419   51.2008 H   0  0  0  0  0  0  0  0  0  0  0  0
   15.8949   42.1481   52.7347 H   0  0  0  0  0  0  0  0  0  0  0  0
   16.0485   43.9538   54.5067 H   0  0  0  0  0  0  0  0  0  0  0  0
   20.5427   45.1037   56.0813 H   0  0  0  0  0  0  0  0  0  0  0  0
   22.7509   42.9979   52.8476 H   0  0  0  0  0  0  0  0  0  0  0  0
   26.1009   43.4634   55.0845 H   0  0  0  0  0  0  0  0  0  0  0  0
   26.1449   45.9123   55.6205 H   0  0  0  0  0  0  0  0  0  0  0  0
   27.3203   46.4295   56.6293 H   0  0  0  0  0  0  0  0  0  0  0  0
   27.3065   44.8784   56.1190 H   0  0  0  0  0  0  0  0  0  0  0  0
   26.6811   45.0702   59.4040 H   0  0  0  0  0  0  0  0  0  0  0  0
   26.9127   46.5550   58.7648 H   0  0  0  0  0  0  0  0  0  0  0  0
   25.4389   46.1271   59.3229 H   0  0  0  0  0  0  0  0  0  0  0  0
   22.3987   44.1465   56.8087 H   0  0  0  0  0  0  0  0  0  0  0  0
   20.8262   42.1235   53.2314 H   0  0  0  0  0  0  0  0  0  0  0  0
  1  2  1  0  0  0  0
  2  3  1  0  0  0  0
  3  4  2  0  0  0  0
  4  5  1  0  0  0  0
  5  6  2  0  0  0  0
  6  7  1  0  0  0  0
  7  8  2  0  0  0  0
  8  9  1  0  0  0  0
  9 10  2  0  0  0  0
 10 11  1  0  0  0  0
 11 12  1  0  0  0  0
 12 13  2  0  0  0  0
 13 14  1  0  0  0  0
 14 15  2  0  0  0  0
 15 16  1  0  0  0  0
 16 17  2  0  0  0  0
 17 18  1  0  0  0  0
 18 19  2  0  0  0  0
 19 20  1  0  0  0  0
 20 21  1  0  0  0  0
 21 22  2  0  0  0  0
 21 23  1  0  0  0  0
 23 24  1  0  0  0  0
 23 25  1  0  0  0  0
 20 26  2  0  0  0  0
 15 27  1  0  0  0  0
 27 28  2  0  0  0  0
  8  3  1  0  0  0  0
 28  9  1  0  0  0  0
 28 12  1  0  0  0  0
 26 16  1  0  0  0  0
  1 29  1  0  0  0  0
  1 30  1  0  0  0  0
  1 31  1  0  0  0  0
  4 32  1  0  0  0  0
  5 33  1  0  0  0  0
  6 34  1  0  0  0  0
  7 35  1  0  0  0  0
 10 36  1  0  0  0  0
 11 37  1  0  0  0  0
 14 38  1  0  0  0  0
 17 39  1  0  0  0  0
 19 40  1  0  0  0  0
 24 41  1  0  0  0  0
 24 42  1  0  0  0  0
 24 43  1  0  0  0  0
 25 44  1  0  0  0  0
 25 45  1  0  0  0  0
 25 46  1  0  0  0  0
 26 47  1  0  0  0  0
 27 48  1  0  0  0  0
M  END
>  <docking-score>
-11.46

$$$$
3MS9_MS9_1
foFlexX   03192112293D 1   1.00000     0.00000     0
FlexX 4.5.0 fol007
 20 20  0  0  0  0            999 V2000
   17.1288   41.7742   51.9591 C   0  0  0  0  0  0  0  0  0  0  0  0
   18.3465   42.3097   52.4630 O   0  0  0  0  0  0  0  0  0  0  0  0
   18.4704   42.8104   53.7631 C   0  0  0  0  0  0  0  0  0  0  0  0
   17.4775   42.7990   54.5423 O   0  0  0  0  0  0  0  0  0  0  0  0
   19.7530   43.2905   54.2400 C   0  0  0  0  0  0  0  0  0  0  0  0
   20.8317   43.2928   53.3610 C   0  0  0  0  0  0  0  0  0  0  0  0
   22.0755   43.7474   53.7872 C   0  0  0  0  0  0  0  0  0  0  0  0
   22.2284   44.1969   55.0949 C   0  0  0  0  0  0  0  0  0  0  0  0
   23.8179   44.7795   55.6458 Cl  0  0  0  0  0  0  0  0  0  0  0  0
   21.1542   44.1972   55.9790 C   0  0  0  0  0  0  0  0  0  0  0  0
   19.9127   43.7417   55.5469 C   0  0  0  0  0  0  0  0  0  0  0  0
   18.8430   43.7495   56.4506 N   0  0  0  0  0  0  0  0  0  0  0  0
   16.4178   42.4767   51.9896 H   0  0  0  0  0  0  0  0  0  0  0  0
   17.2619   41.4754   51.0141 H   0  0  0  0  0  0  0  0  0  0  0  0
   16.8507   40.9940   52.5194 H   0  0  0  0  0  0  0  0  0  0  0  0
   20.7128   42.9676   52.4228 H   0  0  0  0  0  0  0  0  0  0  0  0
   22.8533   43.7511   53.1587 H   0  0  0  0  0  0  0  0  0  0  0  0
   21.2735   44.5221   56.9172 H   0  0  0  0  0  0  0  0  0  0  0  0
   18.3806   42.8945   56.6854 H   0  0  0  0  0  0  0  0  0  0  0  0
   18.5417   44.6101   56.8612 H   0  0  0  0  0  0  0  0  0  0  0  0
  1  2  1  0  0  0  0
  2  3  1  0  0  0  0
  3  4  2  0  0  0  0
  3  5  1  0  0  0  0
  5  6  2  0  0  0  0
  6  7  1  0  0  0  0
  7  8  2  0  0  0  0
  8  9  1  0  0  0  0
  8 10  1  0  0  0  0
 10 11  2  0  0  0  0
 11 12  1  0  0  0  0
 11  5  1  0  0  0  0
  1 13  1  0  0  0  0
  1 14  1  0  0  0  0
  1 15  1  0  0  0  0
  6 16  1  0  0  0  0
  7 17  1  0  0  0  0
 10 18  1  0  0  0  0
 12 19  1  0  0  0  0
 12 20  1  0  0  0  0
M  END
>  <docking-score>
-10.95

$$$$
3MS9_MS9_2
foFlexX   03192112293D 1   1.00000     0.00000     0
FlexX 4.5.0 fol007
 20 20  0  0  0  0            999 V2000
   17.8029   41.6460   51.8874 C   0  0  0  0  0  0  0  0  0  0  0  0
   18.9977   42.2923   52.3094 O   0  0  0  0  0  0  0  0  0  0  0  0
   19.0410   43.1573   53.4076 C   0  0  0  0  0  0  0  0  0  0  0  0
   17.9796   43.6902   53.8349 O   0  0  0  0  0  0  0  0  0  0  0  0
   20.2946   43.3998   54.0953 C   0  0  0  0  0  0  0  0  0  0  0  0
   21.4735   43.3822   53.3564 C   0  0  0  0  0  0  0  0  0  0  0  0
   22.6927   43.6115   53.9860 C   0  0  0  0  0  0  0  0  0  0  0  0
   22.7202   43.8569   55.3552 C   0  0  0  0  0  0  0  0  0  0  0  0
   24.2776   44.1507   56.1662 Cl  0  0  0  0  0  0  0  0  0  0  0  0
   21.5453   43.8758   56.1000 C   0  0  0  0  0  0  0  0  0  0  0  0
   20.3290   43.6461   55.4647 C   0  0  0  0  0  0  0  0  0  0  0  0
   19.1568   43.6692   56.2304 N   0  0  0  0  0  0  0  0  0  0  0  0
   17.1181   42.3345   51.6483 H   0  0  0  0  0  0  0  0  0  0  0  0
   17.9962   41.0766   51.0885 H   0  0  0  0  0  0  0  0  0  0  0  0
   17.4543   41.0727   52.6289 H   0  0  0  0  0  0  0  0  0  0  0  0
   21.4444   43.2046   52.3728 H   0  0  0  0  0  0  0  0  0  0  0  0
   23.5423   43.6000   53.4588 H   0  0  0  0  0  0  0  0  0  0  0  0
   21.5747   44.0530   57.0837 H   0  0  0  0  0  0  0  0  0  0  0  0
   18.8199   42.8286   56.6544 H   0  0  0  0  0  0  0  0  0  0  0  0
   18.6567   44.5264   56.3531 H   0  0  0  0  0  0  0  0  0  0  0  0
  1  2  1  0  0  0  0
  2  3  1  0  0  0  0
  3  4  2  0  0  0  0
  3  5  1  0  0  0  0
  5  6  2  0  0  0  0
  6  7  1  0  0  0  0
  7  8  2  0  0  0  0
  8  9  1  0  0  0  0
  8 10  1  0  0  0  0
 10 11  2  0  0  0  0
 11 12  1  0  0  0  0
 11  5  1  0  0  0  0
  1 13  1  0  0  0  0
  1 14  1  0  0  0  0
  1 15  1  0  0  0  0
  6 16  1  0  0  0  0
  7 17  1  0  0  0  0
 10 18  1  0  0  0  0
 12 19  1  0  0  0  0
 12 20  1  0  0  0  0
M  END
>  <docking-score>
-10.92

$$$$
3MS9_MS9_3
foFlexX   03192112293D 1   1.00000     0.00000     0
FlexX 4.5.0 fol007
 20 20  0  0  0  0            999 V2000
   18.2659   41.4694   50.9632 C   0  0  0  0  0  0  0  0  0  0  0  0
   19.2476   42.2864   51.5894 O   0  0  0  0  0  0  0  0  0  0  0  0
   19.0503   42.8788   52.8410 C   0  0  0  0  0  0  0  0  0  0  0  0
   17.8813   43.0266   53.2933 O   0  0  0  0  0  0  0  0  0  0  0  0
   20.1888   43.2721   53.6487 C   0  0  0  0  0  0  0  0  0  0  0  0
   21.4670   43.0987   53.1268 C   0  0  0  0  0  0  0  0  0  0  0  0
   22.5801   43.4662   53.8759 C   0  0  0  0  0  0  0  0  0  0  0  0
   22.4024   44.0057   55.1460 C   0  0  0  0  0  0  0  0  0  0  0  0
   23.8233   44.4775   56.1093 Cl  0  0  0  0  0  0  0  0  0  0  0  0
   21.1273   44.1816   55.6739 C   0  0  0  0  0  0  0  0  0  0  0  0
   20.0179   43.8124   54.9198 C   0  0  0  0  0  0  0  0  0  0  0  0
   18.7424   43.9970   55.4674 N   0  0  0  0  0  0  0  0  0  0  0  0
   17.4305   42.0007   50.8224 H   0  0  0  0  0  0  0  0  0  0  0  0
   18.6111   41.1509   50.0804 H   0  0  0  0  0  0  0  0  0  0  0  0
   18.0659   40.6822   51.5466 H   0  0  0  0  0  0  0  0  0  0  0  0
   21.5854   42.7100   52.2131 H   0  0  0  0  0  0  0  0  0  0  0  0
   23.5005   43.3437   53.5046 H   0  0  0  0  0  0  0  0  0  0  0  0
   21.0092   44.5701   56.5878 H   0  0  0  0  0  0  0  0  0  0  0  0
   18.1366   43.2124   55.5994 H   0  0  0  0  0  0  0  0  0  0  0  0
   18.4374   44.9134   55.7266 H   0  0  0  0  0  0  0  0  0  0  0  0
  1  2  1  0  0  0  0
  2  3  1  0  0  0  0
  3  4  2  0  0  0  0
  3  5  1  0  0  0  0
  5  6  2  0  0  0  0
  6  7  1  0  0  0  0
  7  8  2  0  0  0  0
  8  9  1  0  0  0  0
  8 10  1  0  0  0  0
 10 11  2  0  0  0  0
 11 12  1  0  0  0  0
 11  5  1  0  0  0  0
  1 13  1  0  0  0  0
  1 14  1  0  0  0  0
  1 15  1  0  0  0  0
  6 16  1  0  0  0  0
  7 17  1  0  0  0  0
 10 18  1  0  0  0  0
 12 19  1  0  0  0  0
 12 20  1  0  0  0  0
M  END
>  <docking-score>
-10.89

$$$$
3K5V_STJ_1
foFlexX   03192112293D 1   1.00000     0.00000     0
FlexX 4.5.0 fol007
 40 42  0  0  0  0            999 V2000
   20.2338   41.5330   62.7421 N   0  0  0  0  0  0  0  0  0  0  0  0
   20.7489   42.5231   61.8477 C   0  0  0  0  0  0  0  0  0  0  0  0
   21.9368   42.9188   61.9978 O   0  0  0  0  0  0  0  0  0  0  0  0
   19.9242   43.0773   60.7456 C   0  0  0  0  0  0  0  0  0  0  0  0
   18.5824   43.3710   60.9655 C   0  0  0  0  0  0  0  0  0  0  0  0
   17.8248   43.8900   59.9204 C   0  0  0  0  0  0  0  0  0  0  0  0
   18.3900   44.1157   58.6696 C   0  0  0  0  0  0  0  0  0  0  0  0
   19.7341   43.8150   58.4721 C   0  0  0  0  0  0  0  0  0  0  0  0
   20.3341   44.0468   57.1720 C   0  0  0  0  0  0  0  0  0  0  0  0
   19.5413   43.9484   56.0333 C   0  0  0  0  0  0  0  0  0  0  0  0
   20.1268   44.1724   54.7915 C   0  0  0  0  0  0  0  0  0  0  0  0
   19.3380   44.0753   53.6380 N   0  0  0  0  0  0  0  0  0  0  0  0
   19.1500   42.8608   52.8918 C   0  0  0  0  0  0  0  0  0  0  0  0
   18.5840   41.7526   53.5141 C   0  0  0  0  0  0  0  0  0  0  0  0
   18.3981   40.5730   52.7998 C   0  0  0  0  0  0  0  0  0  0  0  0
   18.7847   40.5198   51.4647 C   0  0  0  0  0  0  0  0  0  0  0  0
   18.6104   39.3815   50.7611 O   0  0  0  0  0  0  0  0  0  0  0  0
   17.4450   39.0471   50.0105 C   0  0  0  0  0  0  0  0  0  0  0  0
   17.2256   39.9921   49.0241 F   0  0  0  0  0  0  0  0  0  0  0  0
   16.3554   39.0283   50.8592 F   0  0  0  0  0  0  0  0  0  0  0  0
   17.5880   37.7946   49.4408 F   0  0  0  0  0  0  0  0  0  0  0  0
   19.3522   41.6231   50.8342 C   0  0  0  0  0  0  0  0  0  0  0  0
   19.5339   42.7982   51.5558 C   0  0  0  0  0  0  0  0  0  0  0  0
   21.4324   44.4757   54.7294 N   0  0  0  0  0  0  0  0  0  0  0  0
   22.1845   44.5672   55.8365 C   0  0  0  0  0  0  0  0  0  0  0  0
   21.6335   44.3535   57.0409 N   0  0  0  0  0  0  0  0  0  0  0  0
   20.5102   43.2953   59.5031 C   0  0  0  0  0  0  0  0  0  0  0  0
   20.1950   41.7179   63.7241 H   0  0  0  0  0  0  0  0  0  0  0  0
   19.9125   40.6557   62.3854 H   0  0  0  0  0  0  0  0  0  0  0  0
   18.1684   43.2116   61.8617 H   0  0  0  0  0  0  0  0  0  0  0  0
   16.8596   44.1039   60.0705 H   0  0  0  0  0  0  0  0  0  0  0  0
   17.8385   44.4885   57.9234 H   0  0  0  0  0  0  0  0  0  0  0  0
   18.5702   43.7213   56.1059 H   0  0  0  0  0  0  0  0  0  0  0  0
   18.8772   44.9014   53.3137 H   0  0  0  0  0  0  0  0  0  0  0  0
   18.3108   41.8038   54.4747 H   0  0  0  0  0  0  0  0  0  0  0  0
   17.9914   39.7731   53.2410 H   0  0  0  0  0  0  0  0  0  0  0  0
   19.6260   41.5716   49.8738 H   0  0  0  0  0  0  0  0  0  0  0  0
   19.9406   43.5981   51.1144 H   0  0  0  0  0  0  0  0  0  0  0  0
   23.1556   44.7947   55.7641 H   0  0  0  0  0  0  0  0  0  0  0  0
   21.4755   43.0816   59.3531 H   0  0  0  0  0  0  0  0  0  0  0  0
  1  2  1  0  0  0  0
  2  3  2  0  0  0  0
  2  4  1  0  0  0  0
  4  5  2  0  0  0  0
  5  6  1  0  0  0  0
  6  7  2  0  0  0  0
  7  8  1  0  0  0  0
  8  9  1  0  0  0  0
  9 10  2  0  0  0  0
 10 11  1  0  0  0  0
 11 12  1  0  0  0  0
 12 13  1  0  0  0  0
 13 14  2  0  0  0  0
 14 15  1  0  0  0  0
 15 16  2  0  0  0  0
 16 17  1  0  0  0  0
 17 18  1  0  0  0  0
 18 19  1  0  0  0  0
 18 20  1  0  0  0  0
 18 21  1  0  0  0  0
 16 22  1  0  0  0  0
 22 23  2  0  0  0  0
 11 24  2  0  0  0  0
 24 25  1  0  0  0  0
 25 26  2  0  0  0  0
  8 27  2  0  0  0  0
 27  4  1  0  0  0  0
 26  9  1  0  0  0  0
 23 13  1  0  0  0  0
  1 28  1  0  0  0  0
  1 29  1  0  0  0  0
  5 30  1  0  0  0  0
  6 31  1  0  0  0  0
  7 32  1  0  0  0  0
 10 33  1  0  0  0  0
 12 34  1  0  0  0  0
 14 35  1  0  0  0  0
 15 36  1  0  0  0  0
 22 37  1  0  0  0  0
 23 38  1  0  0  0  0
 25 39  1  0  0  0  0
 27 40  1  0  0  0  0
M  END
>  <docking-score>
-21.28

$$$$
3K5V_STJ_2
foFlexX   03192112293D 1   1.00000     0.00000     0
FlexX 4.5.0 fol007
 40 42  0  0  0  0            999 V2000
   27.4233   43.4267   52.6161 N   0  0  0  0  0  0  0  0  0  0  0  0
   26.0736   43.8859   52.7311 C   0  0  0  0  0  0  0  0  0  0  0  0
   25.4494   44.2070   51.6835 O   0  0  0  0  0  0  0  0  0  0  0  0
   25.3941   43.9756   54.0472 C   0  0  0  0  0  0  0  0  0  0  0  0
   26.1498   44.0356   55.2136 C   0  0  0  0  0  0  0  0  0  0  0  0
   25.4953   44.1195   56.4384 C   0  0  0  0  0  0  0  0  0  0  0  0
   24.1063   44.1435   56.5079 C   0  0  0  0  0  0  0  0  0  0  0  0
   23.3703   44.0829   55.3286 C   0  0  0  0  0  0  0  0  0  0  0  0
   21.9213   44.1077   55.3891 C   0  0  0  0  0  0  0  0  0  0  0  0
   21.1932   44.0462   54.2055 C   0  0  0  0  0  0  0  0  0  0  0  0
   19.8040   44.0708   54.2749 C   0  0  0  0  0  0  0  0  0  0  0  0
   19.0608   44.0102   53.0891 N   0  0  0  0  0  0  0  0  0  0  0  0
   18.6161   42.7862   52.4800 C   0  0  0  0  0  0  0  0  0  0  0  0
   17.2547   42.5642   52.2983 C   0  0  0  0  0  0  0  0  0  0  0  0
   16.8150   41.3825   51.7095 C   0  0  0  0  0  0  0  0  0  0  0  0
   17.7507   40.4343   51.3094 C   0  0  0  0  0  0  0  0  0  0  0  0
   17.3372   39.2839   50.7379 O   0  0  0  0  0  0  0  0  0  0  0  0
   17.6884   38.8417   49.4285 C   0  0  0  0  0  0  0  0  0  0  0  0
   19.0607   38.6980   49.3258 F   0  0  0  0  0  0  0  0  0  0  0  0
   17.2696   39.7842   48.5097 F   0  0  0  0  0  0  0  0  0  0  0  0
   17.0657   37.6385   49.1484 F   0  0  0  0  0  0  0  0  0  0  0  0
   19.1143   40.6475   51.4878 C   0  0  0  0  0  0  0  0  0  0  0  0
   19.5449   41.8317   52.0769 C   0  0  0  0  0  0  0  0  0  0  0  0
   19.2108   44.1523   55.4756 N   0  0  0  0  0  0  0  0  0  0  0  0
   19.9264   44.2107   56.6089 C   0  0  0  0  0  0  0  0  0  0  0  0
   21.2667   44.1882   56.5574 N   0  0  0  0  0  0  0  0  0  0  0  0
   24.0041   43.9986   54.0930 C   0  0  0  0  0  0  0  0  0  0  0  0
   28.0027   43.7587   51.8718 H   0  0  0  0  0  0  0  0  0  0  0  0
   27.7874   42.7736   53.2801 H   0  0  0  0  0  0  0  0  0  0  0  0
   27.1488   44.0187   55.1723 H   0  0  0  0  0  0  0  0  0  0  0  0
   26.0314   44.1631   57.2814 H   0  0  0  0  0  0  0  0  0  0  0  0
   23.6435   44.2035   57.3923 H   0  0  0  0  0  0  0  0  0  0  0  0
   21.6588   43.9855   53.3227 H   0  0  0  0  0  0  0  0  0  0  0  0
   18.8249   44.8713   52.6386 H   0  0  0  0  0  0  0  0  0  0  0  0
   16.5922   43.2538   52.5908 H   0  0  0  0  0  0  0  0  0  0  0  0
   15.8379   41.2170   51.5756 H   0  0  0  0  0  0  0  0  0  0  0  0
   19.7768   39.9576   51.1959 H   0  0  0  0  0  0  0  0  0  0  0  0
   20.5220   41.9971   52.2107 H   0  0  0  0  0  0  0  0  0  0  0  0
   19.4608   44.2711   57.4918 H   0  0  0  0  0  0  0  0  0  0  0  0
   23.4680   43.9552   53.2500 H   0  0  0  0  0  0  0  0  0  0  0  0
  1  2  1  0  0  0  0
  2  3  2  0  0  0  0
  2  4  1  0  0  0  0
  4  5  2  0  0  0  0
  5  6  1  0  0  0  0
  6  7  2  0  0  0  0
  7  8  1  0  0  0  0
  8  9  1  0  0  0  0
  9 10  2  0  0  0  0
 10 11  1  0  0  0  0
 11 12  1  0  0  0  0
 12 13  1  0  0  0  0
 13 14  2  0  0  0  0
 14 15  1  0  0  0  0
 15 16  2  0  0  0  0
 16 17  1  0  0  0  0
 17 18  1  0  0  0  0
 18 19  1  0  0  0  0
 18 20  1  0  0  0  0
 18 21  1  0  0  0  0
 16 22  1  0  0  0  0
 22 23  2  0  0  0  0
 11 24  2  0  0  0  0
 24 25  1  0  0  0  0
 25 26  2  0  0  0  0
  8 27  2  0  0  0  0
 27  4  1  0  0  0  0
 26  9  1  0  0  0  0
 23 13  1  0  0  0  0
  1 28  1  0  0  0  0
  1 29  1  0  0  0  0
  5 30  1  0  0  0  0
  6 31  1  0  0  0  0
  7 32  1  0  0  0  0
 10 33  1  0  0  0  0
 12 34  1  0  0  0  0
 14 35  1  0  0  0  0
 15 36  1  0  0  0  0
 22 37  1  0  0  0  0
 23 38  1  0  0  0  0
 25 39  1  0  0  0  0
 27 40  1  0  0  0  0
M  END
>  <docking-score>
-20.82

$$$$
3K5V_STJ_3
foFlexX   03192112293D 1   1.00000     0.00000     0
FlexX 4.5.0 fol007
 40 42  0  0  0  0            999 V2000
   20.2477   41.3792   62.4871 N   0  0  0  0  0  0  0  0  0  0  0  0
   20.7516   42.4320   61.6605 C   0  0  0  0  0  0  0  0  0  0  0  0
   21.9416   42.8161   61.8233 O   0  0  0  0  0  0  0  0  0  0  0  0
   19.9128   43.0645   60.6125 C   0  0  0  0  0  0  0  0  0  0  0  0
   18.5741   43.3410   60.8709 C   0  0  0  0  0  0  0  0  0  0  0  0
   17.8032   43.9344   59.8763 C   0  0  0  0  0  0  0  0  0  0  0  0
   18.3520   44.2507   58.6380 C   0  0  0  0  0  0  0  0  0  0  0  0
   19.6932   43.9657   58.4015 C   0  0  0  0  0  0  0  0  0  0  0  0
   20.2762   44.2917   57.1139 C   0  0  0  0  0  0  0  0  0  0  0  0
   19.4684   44.2761   55.9816 C   0  0  0  0  0  0  0  0  0  0  0  0
   20.0377   44.5901   54.7518 C   0  0  0  0  0  0  0  0  0  0  0  0
   19.2337   44.5769   53.6048 N   0  0  0  0  0  0  0  0  0  0  0  0
   19.0352   43.4199   52.7747 C   0  0  0  0  0  0  0  0  0  0  0  0
   17.7516   42.9127   52.5985 C   0  0  0  0  0  0  0  0  0  0  0  0
   17.5499   41.7934   51.7967 C   0  0  0  0  0  0  0  0  0  0  0  0
   18.6431   41.1942   51.1799 C   0  0  0  0  0  0  0  0  0  0  0  0
   18.4610   40.1078   50.4005 O   0  0  0  0  0  0  0  0  0  0  0  0
   17.9035   38.8683   50.8321 C   0  0  0  0  0  0  0  0  0  0  0  0
   16.6170   39.0623   51.3030 F   0  0  0  0  0  0  0  0  0  0  0  0
   18.6799   38.3596   51.8550 F   0  0  0  0  0  0  0  0  0  0  0  0
   17.8919   37.9612   49.7877 F   0  0  0  0  0  0  0  0  0  0  0  0
   19.9306   41.6942   51.3510 C   0  0  0  0  0  0  0  0  0  0  0  0
   20.1229   42.8137   52.1538 C   0  0  0  0  0  0  0  0  0  0  0  0
   21.3425   44.8976   54.6947 N   0  0  0  0  0  0  0  0  0  0  0  0
   22.1092   44.9086   55.7956 C   0  0  0  0  0  0  0  0  0  0  0  0
   21.5739   44.6077   56.9884 N   0  0  0  0  0  0  0  0  0  0  0  0
   20.4825   43.3726   59.3816 C   0  0  0  0  0  0  0  0  0  0  0  0
   20.2219   41.4921   63.4804 H   0  0  0  0  0  0  0  0  0  0  0  0
   19.9212   40.5301   62.0718 H   0  0  0  0  0  0  0  0  0  0  0  0
   18.1719   43.1166   61.7585 H   0  0  0  0  0  0  0  0  0  0  0  0
   16.8401   44.1364   60.0544 H   0  0  0  0  0  0  0  0  0  0  0  0
   17.7910   44.6766   57.9283 H   0  0  0  0  0  0  0  0  0  0  0  0
   18.4982   44.0440   56.0502 H   0  0  0  0  0  0  0  0  0  0  0  0
   18.7692   45.4243   53.3475 H   0  0  0  0  0  0  0  0  0  0  0  0
   16.9741   43.3526   53.0479 H   0  0  0  0  0  0  0  0  0  0  0  0
   16.6299   41.4242   51.6656 H   0  0  0  0  0  0  0  0  0  0  0  0
   20.7082   41.2539   50.9021 H   0  0  0  0  0  0  0  0  0  0  0  0
   21.0430   43.1828   52.2849 H   0  0  0  0  0  0  0  0  0  0  0  0
   23.0793   45.1411   55.7271 H   0  0  0  0  0  0  0  0  0  0  0  0
   21.4457   43.1708   59.2038 H   0  0  0  0  0  0  0  0  0  0  0  0
  1  2  1  0  0  0  0
  2  3  2  0  0  0  0
  2  4  1  0  0  0  0
  4  5  2  0  0  0  0
  5  6  1  0  0  0  0
  6  7  2  0  0  0  0
  7  8  1  0  0  0  0
  8  9  1  0  0  0  0
  9 10  2  0  0  0  0
 10 11  1  0  0  0  0
 11 12  1  0  0  0  0
 12 13  1  0  0  0  0
 13 14  2  0  0  0  0
 14 15  1  0  0  0  0
 15 16  2  0  0  0  0
 16 17  1  0  0  0  0
 17 18  1  0  0  0  0
 18 19  1  0  0  0  0
 18 20  1  0  0  0  0
 18 21  1  0  0  0  0
 16 22  1  0  0  0  0
 22 23  2  0  0  0  0
 11 24  2  0  0  0  0
 24 25  1  0  0  0  0
 25 26  2  0  0  0  0
  8 27  2  0  0  0  0
 27  4  1  0  0  0  0
 26  9  1  0  0  0  0
 23 13  1  0  0  0  0
  1 28  1  0  0  0  0
  1 29  1  0  0  0  0
  5 30  1  0  0  0  0
  6 31  1  0  0  0  0
  7 32  1  0  0  0  0
 10 33  1  0  0  0  0
 12 34  1  0  0  0  0
 14 35  1  0  0  0  0
 15 36  1  0  0  0  0
 22 37  1  0  0  0  0
 23 38  1  0  0  0  0
 25 39  1  0  0  0  0
 27 40  1  0  0  0  0
M  END
>  <docking-score>
-20.77

$$$$
3K5V_STI_1
foFlexX   03192112293D 1   1.00000     0.00000     0
FlexX 4.5.0 fol007
 70 74  0  0  0  0            999 V2000
   25.4854   44.0237   53.2162 C   0  0  0  0  0  0  0  0  0  0  0  0
   25.1372   44.9002   54.4083 C   0  0  0  0  0  0  0  0  0  0  0  0
   25.9686   45.9719   54.7162 C   0  0  0  0  0  0  0  0  0  0  0  0
   25.6743   46.7913   55.8013 C   0  0  0  0  0  0  0  0  0  0  0  0
   24.5450   46.5266   56.5692 C   0  0  0  0  0  0  0  0  0  0  0  0
   24.2400   47.3449   57.6634 N   0  0  0  0  0  0  0  0  0  0  0  0
   23.1009   47.1578   58.5181 C   0  0  0  0  0  0  0  0  0  0  0  0
   22.5821   48.1661   59.0684 O   0  0  0  0  0  0  0  0  0  0  0  0
   22.5499   45.8115   58.8019 C   0  0  0  0  0  0  0  0  0  0  0  0
   21.1720   45.6446   58.8974 C   0  0  0  0  0  0  0  0  0  0  0  0
   20.6401   44.3866   59.1620 C   0  0  0  0  0  0  0  0  0  0  0  0
   21.5031   43.3074   59.3279 C   0  0  0  0  0  0  0  0  0  0  0  0
   20.9360   41.9271   59.6184 C   0  0  0  0  0  0  0  0  0  0  0  0
   20.1442   41.9009   60.8758 N   0  3  0  0  0  0  0  0  0  0  0  0
   19.0213   42.8435   60.7671 C   0  0  0  0  0  0  0  0  0  0  0  0
   18.2826   42.9488   62.0938 C   0  0  0  0  0  0  0  0  0  0  0  0
   19.1934   43.2781   63.2036 N   0  3  0  0  0  0  0  0  0  0  0  0
   18.7701   44.5119   63.8826 C   0  0  0  0  0  0  0  0  0  0  0  0
   20.6056   43.3953   62.8062 C   0  0  0  0  0  0  0  0  0  0  0  0
   21.0475   42.1810   62.0073 C   0  0  0  0  0  0  0  0  0  0  0  0
   22.8814   43.4697   59.2335 C   0  0  0  0  0  0  0  0  0  0  0  0
   23.4083   44.7299   58.9686 C   0  0  0  0  0  0  0  0  0  0  0  0
   23.7086   45.4567   56.2676 C   0  0  0  0  0  0  0  0  0  0  0  0
   24.0093   44.6415   55.1811 C   0  0  0  0  0  0  0  0  0  0  0  0
   23.1539   43.5311   54.8562 N   0  0  0  0  0  0  0  0  0  0  0  0
   21.7985   43.6688   54.5307 C   0  0  0  0  0  0  0  0  0  0  0  0
   21.1289   44.7387   54.9842 N   0  0  0  0  0  0  0  0  0  0  0  0
   19.8302   44.9222   54.7042 C   0  0  0  0  0  0  0  0  0  0  0  0
   19.1575   43.9855   53.9265 C   0  0  0  0  0  0  0  0  0  0  0  0
   19.8601   42.8793   53.4610 C   0  0  0  0  0  0  0  0  0  0  0  0
   19.1653   41.8965   52.6487 C   0  0  0  0  0  0  0  0  0  0  0  0
   18.4152   42.3193   51.5565 C   0  0  0  0  0  0  0  0  0  0  0  0
   17.7521   41.3750   50.7806 C   0  0  0  0  0  0  0  0  0  0  0  0
   17.8616   40.0318   51.1242 C   0  0  0  0  0  0  0  0  0  0  0  0
   18.5911   39.6486   52.1826 N   0  0  0  0  0  0  0  0  0  0  0  0
   19.2404   40.5398   52.9466 C   0  0  0  0  0  0  0  0  0  0  0  0
   21.1592   42.7579   53.7792 N   0  0  0  0  0  0  0  0  0  0  0  0
   24.8003   43.3014   53.1221 H   0  0  0  0  0  0  0  0  0  0  0  0
   25.4989   44.5805   52.3857 H   0  0  0  0  0  0  0  0  0  0  0  0
   26.3861   43.6125   53.3565 H   0  0  0  0  0  0  0  0  0  0  0  0
   26.7779   46.1535   54.1575 H   0  0  0  0  0  0  0  0  0  0  0  0
   26.2688   47.5630   56.0271 H   0  0  0  0  0  0  0  0  0  0  0  0
   24.8543   48.1084   57.8627 H   0  0  0  0  0  0  0  0  0  0  0  0
   20.5638   46.4290   58.7759 H   0  0  0  0  0  0  0  0  0  0  0  0
   19.6507   44.2594   59.2321 H   0  0  0  0  0  0  0  0  0  0  0  0
   21.6927   41.2784   59.7003 H   0  0  0  0  0  0  0  0  0  0  0  0
   20.3446   41.6553   58.8592 H   0  0  0  0  0  0  0  0  0  0  0  0
   19.7710   40.9805   60.9926 H   0  0  0  0  0  0  0  0  0  0  0  0
   18.3886   42.5216   60.0629 H   0  0  0  0  0  0  0  0  0  0  0  0
   19.3720   43.7450   60.5134 H   0  0  0  0  0  0  0  0  0  0  0  0
   17.5885   43.6650   62.0215 H   0  0  0  0  0  0  0  0  0  0  0  0
   17.8395   42.0736   62.2877 H   0  0  0  0  0  0  0  0  0  0  0  0
   19.1320   42.5350   63.8700 H   0  0  0  0  0  0  0  0  0  0  0  0
   17.8476   44.3909   64.2493 H   0  0  0  0  0  0  0  0  0  0  0  0
   19.4022   44.7144   64.6305 H   0  0  0  0  0  0  0  0  0  0  0  0
   18.7725   45.2693   63.2297 H   0  0  0  0  0  0  0  0  0  0  0  0
   21.1714   43.4705   63.6273 H   0  0  0  0  0  0  0  0  0  0  0  0
   20.7208   44.2155   62.2458 H   0  0  0  0  0  0  0  0  0  0  0  0
   21.9674   42.3465   61.6518 H   0  0  0  0  0  0  0  0  0  0  0  0
   21.0623   41.3850   62.6125 H   0  0  0  0  0  0  0  0  0  0  0  0
   23.4897   42.6854   59.3552 H   0  0  0  0  0  0  0  0  0  0  0  0
   24.3977   44.8572   58.8986 H   0  0  0  0  0  0  0  0  0  0  0  0
   22.8993   45.2754   56.8262 H   0  0  0  0  0  0  0  0  0  0  0  0
   23.5481   42.6121   54.8631 H   0  0  0  0  0  0  0  0  0  0  0  0
   19.3489   45.7268   55.0521 H   0  0  0  0  0  0  0  0  0  0  0  0
   18.1893   44.1049   53.7067 H   0  0  0  0  0  0  0  0  0  0  0  0
   18.3533   43.2917   51.3317 H   0  0  0  0  0  0  0  0  0  0  0  0
   17.2071   41.6563   49.9907 H   0  0  0  0  0  0  0  0  0  0  0  0
   17.3899   39.3422   50.5747 H   0  0  0  0  0  0  0  0  0  0  0  0
   19.7782   40.2289   53.7303 H   0  0  0  0  0  0  0  0  0  0  0  0
  1  2  1  0  0  0  0
  2  3  2  0  0  0  0
  3  4  1  0  0  0  0
  4  5  2  0  0  0  0
  5  6  1  0  0  0  0
  6  7  1  0  0  0  0
  7  8  2  0  0  0  0
  7  9  1  0  0  0  0
  9 10  2  0  0  0  0
 10 11  1  0  0  0  0
 11 12  2  0  0  0  0
 12 13  1  0  0  0  0
 13 14  1  0  0  0  0
 14 15  1  0  0  0  0
 15 16  1  0  0  0  0
 16 17  1  0  0  0  0
 17 18  1  0  0  0  0
 17 19  1  0  0  0  0
 19 20  1  0  0  0  0
 12 21  1  0  0  0  0
 21 22  2  0  0  0  0
  5 23  1  0  0  0  0
 23 24  2  0  0  0  0
 24 25  1  0  0  0  0
 25 26  1  0  0  0  0
 26 27  2  0  0  0  0
 27 28  1  0  0  0  0
 28 29  2  0  0  0  0
 29 30  1  0  0  0  0
 30 31  1  0  0  0  0
 31 32  2  0  0  0  0
 32 33  1  0  0  0  0
 33 34  2  0  0  0  0
 34 35  1  0  0  0  0
 35 36  2  0  0  0  0
 30 37  2  0  0  0  0
 24  2  1  0  0  0  0
 37 26  1  0  0  0  0
 22  9  1  0  0  0  0
 36 31  1  0  0  0  0
 20 14  1  0  0  0  0
  1 38  1  0  0  0  0
  1 39  1  0  0  0  0
  1 40  1  0  0  0  0
  3 41  1  0  0  0  0
  4 42  1  0  0  0  0
  6 43  1  0  0  0  0
 10 44  1  0  0  0  0
 11 45  1  0  0  0  0
 13 46  1  0  0  0  0
 13 47  1  0  0  0  0
 14 48  1  0  0  0  0
 15 49  1  0  0  0  0
 15 50  1  0  0  0  0
 16 51  1  0  0  0  0
 16 52  1  0  0  0  0
 17 53  1  0  0  0  0
 18 54  1  0  0  0  0
 18 55  1  0  0  0  0
 18 56  1  0  0  0  0
 19 57  1  0  0  0  0
 19 58  1  0  0  0  0
 20 59  1  0  0  0  0
 20 60  1  0  0  0  0
 21 61  1  0  0  0  0
 22 62  1  0  0  0  0
 23 63  1  0  0  0  0
 25 64  1  0  0  0  0
 28 65  1  0  0  0  0
 29 66  1  0  0  0  0
 32 67  1  0  0  0  0
 33 68  1  0  0  0  0
 34 69  1  0  0  0  0
 36 70  1  0  0  0  0
M  CHG  2  14   1  17   1
M  END
>  <docking-score>
-16.44

$$$$
3K5V_STI_2
foFlexX   03192112293D 1   1.00000     0.00000     0
FlexX 4.5.0 fol007
 70 74  0  0  0  0            999 V2000
   25.5285   43.9729   53.2115 C   0  0  0  0  0  0  0  0  0  0  0  0
   25.1778   44.8599   54.3951 C   0  0  0  0  0  0  0  0  0  0  0  0
   26.0195   45.9223   54.7075 C   0  0  0  0  0  0  0  0  0  0  0  0
   25.7231   46.7509   55.7850 C   0  0  0  0  0  0  0  0  0  0  0  0
   24.5815   46.5048   56.5408 C   0  0  0  0  0  0  0  0  0  0  0  0
   24.2742   47.3326   57.6273 N   0  0  0  0  0  0  0  0  0  0  0  0
   23.1228   47.1646   58.4693 C   0  0  0  0  0  0  0  0  0  0  0  0
   22.6107   48.1823   59.0085 O   0  0  0  0  0  0  0  0  0  0  0  0
   22.5510   45.8270   58.7531 C   0  0  0  0  0  0  0  0  0  0  0  0
   21.1700   45.6786   58.8331 C   0  0  0  0  0  0  0  0  0  0  0  0
   20.6186   44.4289   59.0976 C   0  0  0  0  0  0  0  0  0  0  0  0
   21.4655   43.3395   59.2790 C   0  0  0  0  0  0  0  0  0  0  0  0
   20.8770   41.9681   59.5695 C   0  0  0  0  0  0  0  0  0  0  0  0
   20.0701   41.9586   60.8175 N   0  3  0  0  0  0  0  0  0  0  0  0
   20.9010   42.3403   61.9764 C   0  0  0  0  0  0  0  0  0  0  0  0
   20.3573   43.5672   62.6900 C   0  0  0  0  0  0  0  0  0  0  0  0
   18.9531   43.3490   63.0719 N   0  3  0  0  0  0  0  0  0  0  0  0
   18.4032   44.5821   63.6492 C   0  0  0  0  0  0  0  0  0  0  0  0
   18.1105   42.8735   61.9606 C   0  0  0  0  0  0  0  0  0  0  0  0
   18.8751   42.7967   60.6482 C   0  0  0  0  0  0  0  0  0  0  0  0
   22.8467   43.4833   59.2001 C   0  0  0  0  0  0  0  0  0  0  0  0
   23.3932   44.7352   58.9353 C   0  0  0  0  0  0  0  0  0  0  0  0
   23.7348   45.4444   56.2345 C   0  0  0  0  0  0  0  0  0  0  0  0
   24.0376   44.6198   55.1556 C   0  0  0  0  0  0  0  0  0  0  0  0
   23.1717   43.5190   54.8261 N   0  0  0  0  0  0  0  0  0  0  0  0
   21.8221   43.6727   54.4839 C   0  0  0  0  0  0  0  0  0  0  0  0
   21.1612   44.7535   54.9241 N   0  0  0  0  0  0  0  0  0  0  0  0
   19.8684   44.9524   54.6279 C   0  0  0  0  0  0  0  0  0  0  0  0
   19.1928   44.0206   53.8468 C   0  0  0  0  0  0  0  0  0  0  0  0
   19.8863   42.9030   53.3951 C   0  0  0  0  0  0  0  0  0  0  0  0
   19.1884   41.9252   52.5795 C   0  0  0  0  0  0  0  0  0  0  0  0
   18.4567   42.3522   51.4764 C   0  0  0  0  0  0  0  0  0  0  0  0
   17.7906   41.4127   50.6973 C   0  0  0  0  0  0  0  0  0  0  0  0
   17.8785   40.0700   51.0488 C   0  0  0  0  0  0  0  0  0  0  0  0
   18.5904   39.6827   52.1176 N   0  0  0  0  0  0  0  0  0  0  0  0
   19.2422   40.5693   52.8850 C   0  0  0  0  0  0  0  0  0  0  0  0
   21.1799   42.7663   53.7294 N   0  0  0  0  0  0  0  0  0  0  0  0
   24.8352   43.2591   53.1128 H   0  0  0  0  0  0  0  0  0  0  0  0
   25.5591   44.5253   52.3785 H   0  0  0  0  0  0  0  0  0  0  0  0
   26.4221   43.5508   53.3645 H   0  0  0  0  0  0  0  0  0  0  0  0
   26.8376   46.0905   54.1576 H   0  0  0  0  0  0  0  0  0  0  0  0
   26.3249   47.5160   56.0140 H   0  0  0  0  0  0  0  0  0  0  0  0
   24.8961   48.0890   57.8300 H   0  0  0  0  0  0  0  0  0  0  0  0
   20.5736   46.4702   58.7005 H   0  0  0  0  0  0  0  0  0  0  0  0
   19.6268   44.3149   59.1565 H   0  0  0  0  0  0  0  0  0  0  0  0
   21.6241   41.3101   59.6635 H   0  0  0  0  0  0  0  0  0  0  0  0
   20.2911   41.7002   58.8047 H   0  0  0  0  0  0  0  0  0  0  0  0
   19.7596   41.0198   60.9670 H   0  0  0  0  0  0  0  0  0  0  0  0
   21.8282   42.5370   61.6576 H   0  0  0  0  0  0  0  0  0  0  0  0
   20.9253   41.5764   62.6213 H   0  0  0  0  0  0  0  0  0  0  0  0
   20.9005   43.7397   63.5117 H   0  0  0  0  0  0  0  0  0  0  0  0
   20.4152   44.3574   62.0800 H   0  0  0  0  0  0  0  0  0  0  0  0
   18.9384   42.6479   63.7848 H   0  0  0  0  0  0  0  0  0  0  0  0
   18.4536   45.3178   62.9737 H   0  0  0  0  0  0  0  0  0  0  0  0
   17.4490   44.4323   63.9082 H   0  0  0  0  0  0  0  0  0  0  0  0
   18.9323   44.8361   64.4588 H   0  0  0  0  0  0  0  0  0  0  0  0
   17.3413   43.5025   61.8482 H   0  0  0  0  0  0  0  0  0  0  0  0
   17.7657   41.9622   62.1856 H   0  0  0  0  0  0  0  0  0  0  0  0
   18.2872   42.3984   59.9441 H   0  0  0  0  0  0  0  0  0  0  0  0
   19.1514   43.7168   60.3705 H   0  0  0  0  0  0  0  0  0  0  0  0
   23.4433   42.6918   59.3329 H   0  0  0  0  0  0  0  0  0  0  0  0
   24.3849   44.8492   58.8764 H   0  0  0  0  0  0  0  0  0  0  0  0
   22.9166   45.2764   56.7844 H   0  0  0  0  0  0  0  0  0  0  0  0
   23.5537   42.5950   54.8422 H   0  0  0  0  0  0  0  0  0  0  0  0
   19.3936   45.7649   54.9661 H   0  0  0  0  0  0  0  0  0  0  0  0
   18.2288   44.1515   53.6150 H   0  0  0  0  0  0  0  0  0  0  0  0
   18.4103   43.3242   51.2461 H   0  0  0  0  0  0  0  0  0  0  0  0
   17.2586   41.6970   49.8997 H   0  0  0  0  0  0  0  0  0  0  0  0
   17.4044   39.3838   50.4971 H   0  0  0  0  0  0  0  0  0  0  0  0
   19.7666   40.2554   53.6764 H   0  0  0  0  0  0  0  0  0  0  0  0
  1  2  1  0  0  0  0
  2  3  2  0  0  0  0
  3  4  1  0  0  0  0
  4  5  2  0  0  0  0
  5  6  1  0  0  0  0
  6  7  1  0  0  0  0
  7  8  2  0  0  0  0
  7  9  1  0  0  0  0
  9 10  2  0  0  0  0
 10 11  1  0  0  0  0
 11 12  2  0  0  0  0
 12 13  1  0  0  0  0
 13 14  1  0  0  0  0
 14 15  1  0  0  0  0
 15 16  1  0  0  0  0
 16 17  1  0  0  0  0
 17 18  1  0  0  0  0
 17 19  1  0  0  0  0
 19 20  1  0  0  0  0
 12 21  1  0  0  0  0
 21 22  2  0  0  0  0
  5 23  1  0  0  0  0
 23 24  2  0  0  0  0
 24 25  1  0  0  0  0
 25 26  1  0  0  0  0
 26 27  2  0  0  0  0
 27 28  1  0  0  0  0
 28 29  2  0  0  0  0
 29 30  1  0  0  0  0
 30 31  1  0  0  0  0
 31 32  2  0  0  0  0
 32 33  1  0  0  0  0
 33 34  2  0  0  0  0
 34 35  1  0  0  0  0
 35 36  2  0  0  0  0
 30 37  2  0  0  0  0
 24  2  1  0  0  0  0
 37 26  1  0  0  0  0
 22  9  1  0  0  0  0
 36 31  1  0  0  0  0
 20 14  1  0  0  0  0
  1 38  1  0  0  0  0
  1 39  1  0  0  0  0
  1 40  1  0  0  0  0
  3 41  1  0  0  0  0
  4 42  1  0  0  0  0
  6 43  1  0  0  0  0
 10 44  1  0  0  0  0
 11 45  1  0  0  0  0
 13 46  1  0  0  0  0
 13 47  1  0  0  0  0
 14 48  1  0  0  0  0
 15 49  1  0  0  0  0
 15 50  1  0  0  0  0
 16 51  1  0  0  0  0
 16 52  1  0  0  0  0
 17 53  1  0  0  0  0
 18 54  1  0  0  0  0
 18 55  1  0  0  0  0
 18 56  1  0  0  0  0
 19 57  1  0  0  0  0
 19 58  1  0  0  0  0
 20 59  1  0  0  0  0
 20 60  1  0  0  0  0
 21 61  1  0  0  0  0
 22 62  1  0  0  0  0
 23 63  1  0  0  0  0
 25 64  1  0  0  0  0
 28 65  1  0  0  0  0
 29 66  1  0  0  0  0
 32 67  1  0  0  0  0
 33 68  1  0  0  0  0
 34 69  1  0  0  0  0
 36 70  1  0  0  0  0
M  CHG  2  14   1  17   1
M  END
>  <docking-score>
-15.94

$$$$
3K5V_STI_3
foFlexX   03192112293D 1   1.00000     0.00000     0
FlexX 4.5.0 fol007
 70 74  0  0  0  0            999 V2000
   25.3087   43.8183   53.1648 C   0  0  0  0  0  0  0  0  0  0  0  0
   24.9267   44.7196   54.3276 C   0  0  0  0  0  0  0  0  0  0  0  0
   25.7518   45.7950   54.6397 C   0  0  0  0  0  0  0  0  0  0  0  0
   25.4267   46.6368   55.6985 C   0  0  0  0  0  0  0  0  0  0  0  0
   24.2733   46.3908   56.4360 C   0  0  0  0  0  0  0  0  0  0  0  0
   23.9372   47.2319   57.5036 N   0  0  0  0  0  0  0  0  0  0  0  0
   22.7716   47.0652   58.3261 C   0  0  0  0  0  0  0  0  0  0  0  0
   22.2393   48.0858   58.8397 O   0  0  0  0  0  0  0  0  0  0  0  0
   22.2074   45.7264   58.6195 C   0  0  0  0  0  0  0  0  0  0  0  0
   20.8267   45.5653   58.6755 C   0  0  0  0  0  0  0  0  0  0  0  0
   20.2825   44.3143   58.9486 C   0  0  0  0  0  0  0  0  0  0  0  0
   21.1363   43.2364   59.1628 C   0  0  0  0  0  0  0  0  0  0  0  0
   20.5558   41.8638   59.4631 C   0  0  0  0  0  0  0  0  0  0  0  0
   20.3644   41.6440   60.9205 N   0  3  0  0  0  0  0  0  0  0  0  0
   21.6704   41.7570   61.5886 C   0  0  0  0  0  0  0  0  0  0  0  0
   21.5050   42.2482   63.0194 C   0  0  0  0  0  0  0  0  0  0  0  0
   21.0050   43.6308   63.0425 N   0  3  0  0  0  0  0  0  0  0  0  0
   22.1023   44.6083   62.9802 C   0  0  0  0  0  0  0  0  0  0  0  0
   20.0935   43.8905   61.9181 C   0  0  0  0  0  0  0  0  0  0  0  0
   19.4047   42.6016   61.4946 C   0  0  0  0  0  0  0  0  0  0  0  0
   22.5174   43.3928   59.1081 C   0  0  0  0  0  0  0  0  0  0  0  0
   23.0566   44.6460   58.8345 C   0  0  0  0  0  0  0  0  0  0  0  0
   23.4430   45.3174   56.1301 C   0  0  0  0  0  0  0  0  0  0  0  0
   23.7745   44.4796   55.0700 C   0  0  0  0  0  0  0  0  0  0  0  0
   22.9259   43.3653   54.7410 N   0  0  0  0  0  0  0  0  0  0  0  0
   21.5816   43.5002   54.3708 C   0  0  0  0  0  0  0  0  0  0  0  0
   20.9019   44.5809   54.7817 N   0  0  0  0  0  0  0  0  0  0  0  0
   19.6132   44.7623   54.4579 C   0  0  0  0  0  0  0  0  0  0  0  0
   18.9618   43.8120   53.6785 C   0  0  0  0  0  0  0  0  0  0  0  0
   19.6747   42.6947   53.2574 C   0  0  0  0  0  0  0  0  0  0  0  0
   19.0021   41.6977   52.4438 C   0  0  0  0  0  0  0  0  0  0  0  0
   19.7363   40.9586   51.5223 C   0  0  0  0  0  0  0  0  0  0  0  0
   19.0887   40.0041   50.7457 C   0  0  0  0  0  0  0  0  0  0  0  0
   17.7210   39.8191   50.9171 C   0  0  0  0  0  0  0  0  0  0  0  0
   17.0344   40.5445   51.8124 N   0  0  0  0  0  0  0  0  0  0  0  0
   17.6359   41.4710   52.5737 C   0  0  0  0  0  0  0  0  0  0  0  0
   20.9629   42.5761   53.6183 N   0  0  0  0  0  0  0  0  0  0  0  0
   24.6244   43.0961   53.0639 H   0  0  0  0  0  0  0  0  0  0  0  0
   25.3499   44.3582   52.3241 H   0  0  0  0  0  0  0  0  0  0  0  0
   26.2032   43.4075   53.3412 H   0  0  0  0  0  0  0  0  0  0  0  0
   26.5787   45.9630   54.1029 H   0  0  0  0  0  0  0  0  0  0  0  0
   26.0166   47.4113   55.9271 H   0  0  0  0  0  0  0  0  0  0  0  0
   24.5477   47.9975   57.7065 H   0  0  0  0  0  0  0  0  0  0  0  0
   20.2252   46.3488   58.5194 H   0  0  0  0  0  0  0  0  0  0  0  0
   19.2910   44.1914   58.9904 H   0  0  0  0  0  0  0  0  0  0  0  0
   21.1795   41.1659   59.1110 H   0  0  0  0  0  0  0  0  0  0  0  0
   19.6705   41.7810   59.0056 H   0  0  0  0  0  0  0  0  0  0  0  0
   20.0135   40.7180   61.0602 H   0  0  0  0  0  0  0  0  0  0  0  0
   22.2418   42.4041   61.0839 H   0  0  0  0  0  0  0  0  0  0  0  0
   22.1120   40.8599   61.5990 H   0  0  0  0  0  0  0  0  0  0  0  0
   20.8548   41.6565   63.4960 H   0  0  0  0  0  0  0  0  0  0  0  0
   22.3904   42.2120   63.4828 H   0  0  0  0  0  0  0  0  0  0  0  0
   20.5033   43.7719   63.8959 H   0  0  0  0  0  0  0  0  0  0  0  0
   22.6197   44.4752   62.1349 H   0  0  0  0  0  0  0  0  0  0  0  0
   21.7253   45.5343   62.9980 H   0  0  0  0  0  0  0  0  0  0  0  0
   22.7080   44.4799   63.7654 H   0  0  0  0  0  0  0  0  0  0  0  0
   20.6152   44.2554   61.1470 H   0  0  0  0  0  0  0  0  0  0  0  0
   19.4033   44.5574   62.1991 H   0  0  0  0  0  0  0  0  0  0  0  0
   18.9700   42.1871   62.2941 H   0  0  0  0  0  0  0  0  0  0  0  0
   18.7082   42.8148   60.8095 H   0  0  0  0  0  0  0  0  0  0  0  0
   23.1190   42.6095   59.2643 H   0  0  0  0  0  0  0  0  0  0  0  0
   24.0481   44.7691   58.7927 H   0  0  0  0  0  0  0  0  0  0  0  0
   22.6161   45.1496   56.6668 H   0  0  0  0  0  0  0  0  0  0  0  0
   23.3165   42.4455   54.7786 H   0  0  0  0  0  0  0  0  0  0  0  0
   19.1241   45.5750   54.7745 H   0  0  0  0  0  0  0  0  0  0  0  0
   18.0012   43.9297   53.4265 H   0  0  0  0  0  0  0  0  0  0  0  0
   20.7191   41.1119   51.4194 H   0  0  0  0  0  0  0  0  0  0  0  0
   19.5966   39.4612   50.0769 H   0  0  0  0  0  0  0  0  0  0  0  0
   17.2428   39.1360   50.3652 H   0  0  0  0  0  0  0  0  0  0  0  0
   17.1020   41.9986   53.2345 H   0  0  0  0  0  0  0  0  0  0  0  0
  1  2  1  0  0  0  0
  2  3  2  0  0  0  0
  3  4  1  0  0  0  0
  4  5  2  0  0  0  0
  5  6  1  0  0  0  0
  6  7  1  0  0  0  0
  7  8  2  0  0  0  0
  7  9  1  0  0  0  0
  9 10  2  0  0  0  0
 10 11  1  0  0  0  0
 11 12  2  0  0  0  0
 12 13  1  0  0  0  0
 13 14  1  0  0  0  0
 14 15  1  0  0  0  0
 15 16  1  0  0  0  0
 16 17  1  0  0  0  0
 17 18  1  0  0  0  0
 17 19  1  0  0  0  0
 19 20  1  0  0  0  0
 12 21  1  0  0  0  0
 21 22  2  0  0  0  0
  5 23  1  0  0  0  0
 23 24  2  0  0  0  0
 24 25  1  0  0  0  0
 25 26  1  0  0  0  0
 26 27  2  0  0  0  0
 27 28  1  0  0  0  0
 28 29  2  0  0  0  0
 29 30  1  0  0  0  0
 30 31  1  0  0  0  0
 31 32  2  0  0  0  0
 32 33  1  0  0  0  0
 33 34  2  0  0  0  0
 34 35  1  0  0  0  0
 35 36  2  0  0  0  0
 30 37  2  0  0  0  0
 24  2  1  0  0  0  0
 37 26  1  0  0  0  0
 22  9  1  0  0  0  0
 36 31  1  0  0  0  0
 20 14  1  0  0  0  0
  1 38  1  0  0  0  0
  1 39  1  0  0  0  0
  1 40  1  0  0  0  0
  3 41  1  0  0  0  0
  4 42  1  0  0  0  0
  6 43  1  0  0  0  0
 10 44  1  0  0  0  0
 11 45  1  0  0  0  0
 13 46  1  0  0  0  0
 13 47  1  0  0  0  0
 14 48  1  0  0  0  0
 15 49  1  0  0  0  0
 15 50  1  0  0  0  0
 16 51  1  0  0  0  0
 16 52  1  0  0  0  0
 17 53  1  0  0  0  0
 18 54  1  0  0  0  0
 18 55  1  0  0  0  0
 18 56  1  0  0  0  0
 19 57  1  0  0  0  0
 19 58  1  0  0  0  0
 20 59  1  0  0  0  0
 20 60  1  0  0  0  0
 21 61  1  0  0  0  0
 22 62  1  0  0  0  0
 23 63  1  0  0  0  0
 25 64  1  0  0  0  0
 28 65  1  0  0  0  0
 29 66  1  0  0  0  0
 32 67  1  0  0  0  0
 33 68  1  0  0  0  0
 34 69  1  0  0  0  0
 36 70  1  0  0  0  0
M  CHG  2  14   1  17   1
M  END
>  <docking-score>
-15.23

$$$$
