1FPU_PRC_1
foFlexX   03192110193D 1   1.00000     0.00000     0
FlexX 4.5.0 fol007
 47 50  0  0  0  0            999 V2000
   16.7301   -9.7680    7.9004 C   0  0  0  0  0  0  0  0  0  0  0  0
   17.9849   -9.0338    8.3441 C   0  0  0  0  0  0  0  0  0  0  0  0
   18.3063   -9.0158    9.6973 C   0  0  0  0  0  0  0  0  0  0  0  0
   19.4489   -8.3520   10.1321 C   0  0  0  0  0  0  0  0  0  0  0  0
   20.2607   -7.7108    9.2022 C   0  0  0  0  0  0  0  0  0  0  0  0
   21.4128   -7.0398    9.6293 N   0  0  0  0  0  0  0  0  0  0  0  0
   22.3115   -6.3497    8.7476 C   0  0  0  0  0  0  0  0  0  0  0  0
   23.5309   -6.2781    9.0580 O   0  0  0  0  0  0  0  0  0  0  0  0
   21.8346   -5.6814    7.5131 C   0  0  0  0  0  0  0  0  0  0  0  0
   22.5060   -5.8991    6.3147 C   0  0  0  0  0  0  0  0  0  0  0  0
   22.0550   -5.2713    5.1589 C   0  0  0  0  0  0  0  0  0  0  0  0
   20.9415   -4.4419    5.2400 C   0  0  0  0  0  0  0  0  0  0  0  0
   20.3107   -4.2475    6.4077 N   0  0  0  0  0  0  0  0  0  0  0  0
   20.7258   -4.8418    7.5366 C   0  0  0  0  0  0  0  0  0  0  0  0
   19.9460   -7.7244    7.8472 C   0  0  0  0  0  0  0  0  0  0  0  0
   18.8016   -8.3901    7.4196 C   0  0  0  0  0  0  0  0  0  0  0  0
   18.4718   -8.4126    6.0590 N   0  0  0  0  0  0  0  0  0  0  0  0
   19.4589   -8.3636    5.0195 C   0  0  0  0  0  0  0  0  0  0  0  0
   20.6482   -7.8018    5.2814 N   0  0  0  0  0  0  0  0  0  0  0  0
   21.6084   -7.7280    4.3481 C   0  0  0  0  0  0  0  0  0  0  0  0
   21.3714   -8.2441    3.0783 C   0  0  0  0  0  0  0  0  0  0  0  0
   20.1352   -8.8245    2.8160 C   0  0  0  0  0  0  0  0  0  0  0  0
   19.8795   -9.3654    1.4930 C   0  0  0  0  0  0  0  0  0  0  0  0
   20.8718   -9.2930    0.5211 C   0  0  0  0  0  0  0  0  0  0  0  0
   20.6234   -9.8130   -0.7443 C   0  0  0  0  0  0  0  0  0  0  0  0
   19.3842  -10.3914   -0.9976 C   0  0  0  0  0  0  0  0  0  0  0  0
   18.4429  -10.4493   -0.0437 N   0  0  0  0  0  0  0  0  0  0  0  0
   18.6580   -9.9553    1.1848 C   0  0  0  0  0  0  0  0  0  0  0  0
   19.2189   -8.8649    3.7971 N   0  0  0  0  0  0  0  0  0  0  0  0
   16.6336   -9.6934    6.9078 H   0  0  0  0  0  0  0  0  0  0  0  0
   16.7996  -10.7320    8.1570 H   0  0  0  0  0  0  0  0  0  0  0  0
   15.9315   -9.3615    8.3443 H   0  0  0  0  0  0  0  0  0  0  0  0
   17.7159   -9.4801   10.3576 H   0  0  0  0  0  0  0  0  0  0  0  0
   19.6845   -8.3359   11.1039 H   0  0  0  0  0  0  0  0  0  0  0  0
   21.6222   -7.0411   10.6071 H   0  0  0  0  0  0  0  0  0  0  0  0
   23.3043   -6.5006    6.2845 H   0  0  0  0  0  0  0  0  0  0  0  0
   22.5223   -5.4133    4.2863 H   0  0  0  0  0  0  0  0  0  0  0  0
   20.6065   -3.9842    4.4165 H   0  0  0  0  0  0  0  0  0  0  0  0
   20.2382   -4.6812    8.3947 H   0  0  0  0  0  0  0  0  0  0  0  0
   20.5366   -7.2602    7.1870 H   0  0  0  0  0  0  0  0  0  0  0  0
   17.5071   -8.4651    5.8011 H   0  0  0  0  0  0  0  0  0  0  0  0
   22.4886   -7.3049    4.5635 H   0  0  0  0  0  0  0  0  0  0  0  0
   22.0750   -8.1988    2.3692 H   0  0  0  0  0  0  0  0  0  0  0  0
   21.7542   -8.8715    0.7302 H   0  0  0  0  0  0  0  0  0  0  0  0
   21.3222   -9.7718   -1.4584 H   0  0  0  0  0  0  0  0  0  0  0  0
   19.1923  -10.7693   -1.9033 H   0  0  0  0  0  0  0  0  0  0  0  0
   17.9403  -10.0110    1.8789 H   0  0  0  0  0  0  0  0  0  0  0  0
  1  2  1  0  0  0  0
  2  3  2  0  0  0  0
  3  4  1  0  0  0  0
  4  5  2  0  0  0  0
  5  6  1  0  0  0  0
  6  7  1  0  0  0  0
  7  8  2  0  0  0  0
  7  9  1  0  0  0  0
  9 10  2  0  0  0  0
 10 11  1  0  0  0  0
 11 12  2  0  0  0  0
 12 13  1  0  0  0  0
 13 14  2  0  0  0  0
  5 15  1  0  0  0  0
 15 16  2  0  0  0  0
 16 17  1  0  0  0  0
 17 18  1  0  0  0  0
 18 19  2  0  0  0  0
 19 20  1  0  0  0  0
 20 21  2  0  0  0  0
 21 22  1  0  0  0  0
 22 23  1  0  0  0  0
 23 24  2  0  0  0  0
 24 25  1  0  0  0  0
 25 26  2  0  0  0  0
 26 27  1  0  0  0  0
 27 28  2  0  0  0  0
 22 29  2  0  0  0  0
 16  2  1  0  0  0  0
 29 18  1  0  0  0  0
 14  9  1  0  0  0  0
 28 23  1  0  0  0  0
  1 30  1  0  0  0  0
  1 31  1  0  0  0  0
  1 32  1  0  0  0  0
  3 33  1  0  0  0  0
  4 34  1  0  0  0  0
  6 35  1  0  0  0  0
 10 36  1  0  0  0  0
 11 37  1  0  0  0  0
 12 38  1  0  0  0  0
 14 39  1  0  0  0  0
 15 40  1  0  0  0  0
 17 41  1  0  0  0  0
 20 42  1  0  0  0  0
 21 43  1  0  0  0  0
 24 44  1  0  0  0  0
 25 45  1  0  0  0  0
 26 46  1  0  0  0  0
 28 47  1  0  0  0  0
M  END
>  <docking-score>
-24.11

$$$$
1FPU_PRC_2
foFlexX   03192110193D 1   1.00000     0.00000     0
FlexX 4.5.0 fol007
 47 50  0  0  0  0            999 V2000
   19.3957   -5.7145   20.9130 C   0  0  0  0  0  0  0  0  0  0  0  0
   19.2393   -6.3729   22.2741 C   0  0  0  0  0  0  0  0  0  0  0  0
   20.3569   -6.9448   22.8730 C   0  0  0  0  0  0  0  0  0  0  0  0
   20.2434   -7.5539   24.1186 C   0  0  0  0  0  0  0  0  0  0  0  0
   19.0060   -7.5832   24.7533 C   0  0  0  0  0  0  0  0  0  0  0  0
   18.8809   -8.1938   26.0069 N   0  0  0  0  0  0  0  0  0  0  0  0
   18.4430   -7.5103   27.1910 C   0  0  0  0  0  0  0  0  0  0  0  0
   18.8743   -7.8976   28.3102 O   0  0  0  0  0  0  0  0  0  0  0  0
   17.4640   -6.3985   27.1338 C   0  0  0  0  0  0  0  0  0  0  0  0
   17.7256   -5.2207   27.8258 C   0  0  0  0  0  0  0  0  0  0  0  0
   16.8053   -4.1799   27.7688 C   0  0  0  0  0  0  0  0  0  0  0  0
   15.6475   -4.3521   27.0178 C   0  0  0  0  0  0  0  0  0  0  0  0
   15.4174   -5.4976   26.3591 N   0  0  0  0  0  0  0  0  0  0  0  0
   16.2895   -6.5163   26.3978 C   0  0  0  0  0  0  0  0  0  0  0  0
   17.8837   -7.0135   24.1608 C   0  0  0  0  0  0  0  0  0  0  0  0
   18.0046   -6.4062   22.9149 C   0  0  0  0  0  0  0  0  0  0  0  0
   16.8841   -5.8283   22.3059 N   0  0  0  0  0  0  0  0  0  0  0  0
   15.7066   -6.5775   21.9753 C   0  0  0  0  0  0  0  0  0  0  0  0
   15.4348   -7.6950   22.6653 N   0  0  0  0  0  0  0  0  0  0  0  0
   14.3485   -8.4352   22.3996 C   0  0  0  0  0  0  0  0  0  0  0  0
   13.4804   -8.0399   21.3872 C   0  0  0  0  0  0  0  0  0  0  0  0
   13.7705   -6.8799   20.6771 C   0  0  0  0  0  0  0  0  0  0  0  0
   12.8697   -6.4604   19.6184 C   0  0  0  0  0  0  0  0  0  0  0  0
   12.4803   -7.3778   18.6482 C   0  0  0  0  0  0  0  0  0  0  0  0
   11.6169   -6.9724   17.6366 C   0  0  0  0  0  0  0  0  0  0  0  0
   11.1687   -5.6558   17.6283 C   0  0  0  0  0  0  0  0  0  0  0  0
   11.5585   -4.7893   18.5751 N   0  0  0  0  0  0  0  0  0  0  0  0
   12.3905   -5.1558   19.5616 C   0  0  0  0  0  0  0  0  0  0  0  0
   14.8757   -6.1865   20.9955 N   0  0  0  0  0  0  0  0  0  0  0  0
   18.5128   -5.3517   20.6148 H   0  0  0  0  0  0  0  0  0  0  0  0
   20.0580   -4.9682   20.9779 H   0  0  0  0  0  0  0  0  0  0  0  0
   19.7190   -6.3906   20.2509 H   0  0  0  0  0  0  0  0  0  0  0  0
   21.2419   -6.9180   22.4082 H   0  0  0  0  0  0  0  0  0  0  0  0
   21.0437   -7.9666   24.5535 H   0  0  0  0  0  0  0  0  0  0  0  0
   19.1104   -9.1642   26.0820 H   0  0  0  0  0  0  0  0  0  0  0  0
   18.5663   -5.1235   28.3584 H   0  0  0  0  0  0  0  0  0  0  0  0
   16.9727   -3.3242   28.2584 H   0  0  0  0  0  0  0  0  0  0  0  0
   14.9772   -3.6116   26.9681 H   0  0  0  0  0  0  0  0  0  0  0  0
   16.0953   -7.3602   25.8976 H   0  0  0  0  0  0  0  0  0  0  0  0
   16.9988   -7.0401   24.6258 H   0  0  0  0  0  0  0  0  0  0  0  0
   16.9057   -4.8516   22.0924 H   0  0  0  0  0  0  0  0  0  0  0  0
   14.1638   -9.2654   22.9257 H   0  0  0  0  0  0  0  0  0  0  0  0
   12.6650   -8.5784   21.1744 H   0  0  0  0  0  0  0  0  0  0  0  0
   12.8177   -8.3187   18.6780 H   0  0  0  0  0  0  0  0  0  0  0  0
   11.3238   -7.6150   16.9287 H   0  0  0  0  0  0  0  0  0  0  0  0
   10.5472   -5.3510   16.9066 H   0  0  0  0  0  0  0  0  0  0  0  0
   12.6661   -4.4911   20.2561 H   0  0  0  0  0  0  0  0  0  0  0  0
  1  2  1  0  0  0  0
  2  3  2  0  0  0  0
  3  4  1  0  0  0  0
  4  5  2  0  0  0  0
  5  6  1  0  0  0  0
  6  7  1  0  0  0  0
  7  8  2  0  0  0  0
  7  9  1  0  0  0  0
  9 10  2  0  0  0  0
 10 11  1  0  0  0  0
 11 12  2  0  0  0  0
 12 13  1  0  0  0  0
 13 14  2  0  0  0  0
  5 15  1  0  0  0  0
 15 16  2  0  0  0  0
 16 17  1  0  0  0  0
 17 18  1  0  0  0  0
 18 19  2  0  0  0  0
 19 20  1  0  0  0  0
 20 21  2  0  0  0  0
 21 22  1  0  0  0  0
 22 23  1  0  0  0  0
 23 24  2  0  0  0  0
 24 25  1  0  0  0  0
 25 26  2  0  0  0  0
 26 27  1  0  0  0  0
 27 28  2  0  0  0  0
 22 29  2  0  0  0  0
 16  2  1  0  0  0  0
 29 18  1  0  0  0  0
 14  9  1  0  0  0  0
 28 23  1  0  0  0  0
  1 30  1  0  0  0  0
  1 31  1  0  0  0  0
  1 32  1  0  0  0  0
  3 33  1  0  0  0  0
  4 34  1  0  0  0  0
  6 35  1  0  0  0  0
 10 36  1  0  0  0  0
 11 37  1  0  0  0  0
 12 38  1  0  0  0  0
 14 39  1  0  0  0  0
 15 40  1  0  0  0  0
 17 41  1  0  0  0  0
 20 42  1  0  0  0  0
 21 43  1  0  0  0  0
 24 44  1  0  0  0  0
 25 45  1  0  0  0  0
 26 46  1  0  0  0  0
 28 47  1  0  0  0  0
M  END
>  <docking-score>
-20.14

$$$$
1FPU_PRC_3
foFlexX   03192110193D 1   1.00000     0.00000     0
FlexX 4.5.0 fol007
 47 50  0  0  0  0            999 V2000
   19.3935   -5.7686   20.8811 C   0  0  0  0  0  0  0  0  0  0  0  0
   19.2306   -6.3750   22.2654 C   0  0  0  0  0  0  0  0  0  0  0  0
   20.3400   -6.9459   22.8804 C   0  0  0  0  0  0  0  0  0  0  0  0
   20.2204   -7.5080   24.1474 C   0  0  0  0  0  0  0  0  0  0  0  0
   18.9854   -7.4916   24.7871 C   0  0  0  0  0  0  0  0  0  0  0  0
   18.8543   -8.0547   26.0621 N   0  0  0  0  0  0  0  0  0  0  0  0
   18.4340   -7.3213   27.2226 C   0  0  0  0  0  0  0  0  0  0  0  0
   18.8628   -7.6765   28.3534 O   0  0  0  0  0  0  0  0  0  0  0  0
   17.4755   -6.1942   27.1292 C   0  0  0  0  0  0  0  0  0  0  0  0
   16.3471   -6.1870   27.9422 C   0  0  0  0  0  0  0  0  0  0  0  0
   15.4510   -5.1277   27.8523 C   0  0  0  0  0  0  0  0  0  0  0  0
   15.7142   -4.1048   26.9474 C   0  0  0  0  0  0  0  0  0  0  0  0
   16.8095   -4.1342   26.1737 N   0  0  0  0  0  0  0  0  0  0  0  0
   17.6893   -5.1447   26.2417 C   0  0  0  0  0  0  0  0  0  0  0  0
   17.8713   -6.9225   24.1786 C   0  0  0  0  0  0  0  0  0  0  0  0
   17.9983   -6.3624   22.9113 C   0  0  0  0  0  0  0  0  0  0  0  0
   16.8861   -5.7857   22.2861 N   0  0  0  0  0  0  0  0  0  0  0  0
   15.6935   -6.5242   21.9866 C   0  0  0  0  0  0  0  0  0  0  0  0
   15.4040   -7.6111   22.7170 N   0  0  0  0  0  0  0  0  0  0  0  0
   14.3030   -8.3399   22.4818 C   0  0  0  0  0  0  0  0  0  0  0  0
   13.4382   -7.9648   21.4589 C   0  0  0  0  0  0  0  0  0  0  0  0
   13.7468   -6.8365   20.7068 C   0  0  0  0  0  0  0  0  0  0  0  0
   12.8495   -6.4382   19.6370 C   0  0  0  0  0  0  0  0  0  0  0  0
   12.4391   -7.3822   18.7016 C   0  0  0  0  0  0  0  0  0  0  0  0
   11.5791   -6.9971   17.6792 C   0  0  0  0  0  0  0  0  0  0  0  0
   11.1553   -5.6735   17.6255 C   0  0  0  0  0  0  0  0  0  0  0  0
   11.5651   -4.7812   18.5393 N   0  0  0  0  0  0  0  0  0  0  0  0
   12.3942   -5.1277   19.5354 C   0  0  0  0  0  0  0  0  0  0  0  0
   14.8659   -6.1529   20.9964 N   0  0  0  0  0  0  0  0  0  0  0  0
   18.5162   -5.4002   20.5733 H   0  0  0  0  0  0  0  0  0  0  0  0
   20.0698   -5.0329   20.9170 H   0  0  0  0  0  0  0  0  0  0  0  0
   19.7015   -6.4737   20.2424 H   0  0  0  0  0  0  0  0  0  0  0  0
   21.2234   -6.9523   22.4119 H   0  0  0  0  0  0  0  0  0  0  0  0
   21.0148   -7.9198   24.5940 H   0  0  0  0  0  0  0  0  0  0  0  0
   19.0661   -9.0259   26.1711 H   0  0  0  0  0  0  0  0  0  0  0  0
   16.1820   -6.9356   28.5845 H   0  0  0  0  0  0  0  0  0  0  0  0
   14.6331   -5.1017   28.4271 H   0  0  0  0  0  0  0  0  0  0  0  0
   15.0781   -3.3368   26.8725 H   0  0  0  0  0  0  0  0  0  0  0  0
   18.4987   -5.1433   25.6545 H   0  0  0  0  0  0  0  0  0  0  0  0
   16.9880   -6.9160   24.6473 H   0  0  0  0  0  0  0  0  0  0  0  0
   16.9249   -4.8178   22.0378 H   0  0  0  0  0  0  0  0  0  0  0  0
   14.1052   -9.1472   23.0378 H   0  0  0  0  0  0  0  0  0  0  0  0
   12.6121   -8.4952   21.2684 H   0  0  0  0  0  0  0  0  0  0  0  0
   12.7592   -8.3276   18.7637 H   0  0  0  0  0  0  0  0  0  0  0  0
   11.2711   -7.6590   16.9958 H   0  0  0  0  0  0  0  0  0  0  0  0
   10.5366   -5.3830   16.8955 H   0  0  0  0  0  0  0  0  0  0  0  0
   12.6850   -4.4440   20.2047 H   0  0  0  0  0  0  0  0  0  0  0  0
  1  2  1  0  0  0  0
  2  3  2  0  0  0  0
  3  4  1  0  0  0  0
  4  5  2  0  0  0  0
  5  6  1  0  0  0  0
  6  7  1  0  0  0  0
  7  8  2  0  0  0  0
  7  9  1  0  0  0  0
  9 10  2  0  0  0  0
 10 11  1  0  0  0  0
 11 12  2  0  0  0  0
 12 13  1  0  0  0  0
 13 14  2  0  0  0  0
  5 15  1  0  0  0  0
 15 16  2  0  0  0  0
 16 17  1  0  0  0  0
 17 18  1  0  0  0  0
 18 19  2  0  0  0  0
 19 20  1  0  0  0  0
 20 21  2  0  0  0  0
 21 22  1  0  0  0  0
 22 23  1  0  0  0  0
 23 24  2  0  0  0  0
 24 25  1  0  0  0  0
 25 26  2  0  0  0  0
 26 27  1  0  0  0  0
 27 28  2  0  0  0  0
 22 29  2  0  0  0  0
 16  2  1  0  0  0  0
 29 18  1  0  0  0  0
 14  9  1  0  0  0  0
 28 23  1  0  0  0  0
  1 30  1  0  0  0  0
  1 31  1  0  0  0  0
  1 32  1  0  0  0  0
  3 33  1  0  0  0  0
  4 34  1  0  0  0  0
  6 35  1  0  0  0  0
 10 36  1  0  0  0  0
 11 37  1  0  0  0  0
 12 38  1  0  0  0  0
 14 39  1  0  0  0  0
 15 40  1  0  0  0  0
 17 41  1  0  0  0  0
 20 42  1  0  0  0  0
 21 43  1  0  0  0  0
 24 44  1  0  0  0  0
 25 45  1  0  0  0  0
 26 46  1  0  0  0  0
 28 47  1  0  0  0  0
M  END
>  <docking-score>
-20.11

$$$$
6HD6_FYH_1
foFlexX   03192110193D 1   1.00000     0.00000     0
FlexX 4.5.0 fol007
 47 49  0  0  0  0            999 V2000
   14.9998   -7.3481   16.7395 O   0  0  0  0  0  0  0  0  0  0  0  0
   15.3218   -7.9915   17.7764 C   0  0  0  0  0  0  0  0  0  0  0  0
   15.9626   -9.2722   17.6488 N   0  0  0  0  0  0  0  0  0  0  0  0
   16.8123   -9.6339   16.5460 C   0  0  0  0  0  0  0  0  0  0  0  0
   17.0469   -8.7139   15.5289 C   0  0  0  0  0  0  0  0  0  0  0  0
   17.8676   -9.0549   14.4582 C   0  0  0  0  0  0  0  0  0  0  0  0
   18.4443  -10.3200   14.4208 C   0  0  0  0  0  0  0  0  0  0  0  0
   19.2415  -10.6633   13.3876 O   0  0  0  0  0  0  0  0  0  0  0  0
   18.8460  -10.6980   12.0180 C   0  0  0  0  0  0  0  0  0  0  0  0
   18.4272   -9.4439   11.6108 F   0  0  0  0  0  0  0  0  0  0  0  0
   17.7966  -11.5851   11.8771 F   0  0  0  0  0  0  0  0  0  0  0  0
   19.8989  -11.1237   11.2282 F   0  0  0  0  0  0  0  0  0  0  0  0
   18.2147  -11.2469   15.4333 C   0  0  0  0  0  0  0  0  0  0  0  0
   17.3933  -10.8974   16.5000 C   0  0  0  0  0  0  0  0  0  0  0  0
   14.9877   -7.4381   19.1116 C   0  0  0  0  0  0  0  0  0  0  0  0
   13.6933   -7.0028   19.3763 C   0  0  0  0  0  0  0  0  0  0  0  0
   13.3984   -6.4868   20.6342 C   0  0  0  0  0  0  0  0  0  0  0  0
   14.3758   -6.4024   21.6204 C   0  0  0  0  0  0  0  0  0  0  0  0
   15.6638   -6.8441   21.3340 C   0  0  0  0  0  0  0  0  0  0  0  0
   16.7403   -6.7572   22.4044 C   0  0  0  0  0  0  0  0  0  0  0  0
   16.9654   -5.3623   22.8504 N   0  3  0  0  0  0  0  0  0  0  0  0
   15.7483   -4.7647   23.4181 C   0  0  0  0  0  0  0  0  0  0  0  0
   15.9916   -3.3265   23.8551 C   0  0  0  0  0  0  0  0  0  0  0  0
   17.3607   -2.9615   23.7204 O   0  0  0  0  0  0  0  0  0  0  0  0
   18.2503   -3.8767   24.3502 C   0  0  0  0  0  0  0  0  0  0  0  0
   18.0265   -5.3012   23.8674 C   0  0  0  0  0  0  0  0  0  0  0  0
   15.9806   -7.3635   20.0829 C   0  0  0  0  0  0  0  0  0  0  0  0
   15.8089   -9.9501   18.3676 H   0  0  0  0  0  0  0  0  0  0  0  0
   16.6258   -7.8077   15.5674 H   0  0  0  0  0  0  0  0  0  0  0  0
   18.0407   -8.3981   13.7242 H   0  0  0  0  0  0  0  0  0  0  0  0
   18.6352  -12.1533   15.3944 H   0  0  0  0  0  0  0  0  0  0  0  0
   17.2203  -11.5542   17.2340 H   0  0  0  0  0  0  0  0  0  0  0  0
   12.9851   -7.0600   18.6726 H   0  0  0  0  0  0  0  0  0  0  0  0
   12.4702   -6.1718   20.8323 H   0  0  0  0  0  0  0  0  0  0  0  0
   14.1560   -6.0298   22.5220 H   0  0  0  0  0  0  0  0  0  0  0  0
   17.5951   -7.1198   22.0333 H   0  0  0  0  0  0  0  0  0  0  0  0
   16.4588   -7.3066   23.1911 H   0  0  0  0  0  0  0  0  0  0  0  0
   17.2491   -4.8176   22.0612 H   0  0  0  0  0  0  0  0  0  0  0  0
   15.4606   -5.3020   24.2109 H   0  0  0  0  0  0  0  0  0  0  0  0
   15.0259   -4.7776   22.7268 H   0  0  0  0  0  0  0  0  0  0  0  0
   15.4363   -2.7172   23.2891 H   0  0  0  0  0  0  0  0  0  0  0  0
   15.7226   -3.2287   24.8132 H   0  0  0  0  0  0  0  0  0  0  0  0
   18.1037   -3.8428   25.3388 H   0  0  0  0  0  0  0  0  0  0  0  0
   19.1912   -3.6085   24.1434 H   0  0  0  0  0  0  0  0  0  0  0  0
   18.8768   -5.6481   23.4717 H   0  0  0  0  0  0  0  0  0  0  0  0
   17.7642   -5.8713   24.6460 H   0  0  0  0  0  0  0  0  0  0  0  0
   16.9087   -7.6786   19.8847 H   0  0  0  0  0  0  0  0  0  0  0  0
  1  2  2  0  0  0  0
  2  3  1  0  0  0  0
  3  4  1  0  0  0  0
  4  5  2  0  0  0  0
  5  6  1  0  0  0  0
  6  7  2  0  0  0  0
  7  8  1  0  0  0  0
  8  9  1  0  0  0  0
  9 10  1  0  0  0  0
  9 11  1  0  0  0  0
  9 12  1  0  0  0  0
  7 13  1  0  0  0  0
 13 14  2  0  0  0  0
  2 15  1  0  0  0  0
 15 16  2  0  0  0  0
 16 17  1  0  0  0  0
 17 18  2  0  0  0  0
 18 19  1  0  0  0  0
 19 20  1  0  0  0  0
 20 21  1  0  0  0  0
 21 22  1  0  0  0  0
 22 23  1  0  0  0  0
 23 24  1  0  0  0  0
 24 25  1  0  0  0  0
 25 26  1  0  0  0  0
 19 27  2  0  0  0  0
 14  4  1  0  0  0  0
 27 15  1  0  0  0  0
 26 21  1  0  0  0  0
  3 28  1  0  0  0  0
  5 29  1  0  0  0  0
  6 30  1  0  0  0  0
 13 31  1  0  0  0  0
 14 32  1  0  0  0  0
 16 33  1  0  0  0  0
 17 34  1  0  0  0  0
 18 35  1  0  0  0  0
 20 36  1  0  0  0  0
 20 37  1  0  0  0  0
 21 38  1  0  0  0  0
 22 39  1  0  0  0  0
 22 40  1  0  0  0  0
 23 41  1  0  0  0  0
 23 42  1  0  0  0  0
 25 43  1  0  0  0  0
 25 44  1  0  0  0  0
 26 45  1  0  0  0  0
 26 46  1  0  0  0  0
 27 47  1  0  0  0  0
M  CHG  1  21   1
M  END
>  <docking-score>
-23.43

$$$$
6HD6_FYH_2
foFlexX   03192110193D 1   1.00000     0.00000     0
FlexX 4.5.0 fol007
 47 49  0  0  0  0            999 V2000
   14.9923   -7.3505   16.7414 O   0  0  0  0  0  0  0  0  0  0  0  0
   15.3187   -7.9922   17.7778 C   0  0  0  0  0  0  0  0  0  0  0  0
   15.9624   -9.2715   17.6494 N   0  0  0  0  0  0  0  0  0  0  0  0
   16.8100   -9.6318   16.5445 C   0  0  0  0  0  0  0  0  0  0  0  0
   17.0395   -8.7120   15.5262 C   0  0  0  0  0  0  0  0  0  0  0  0
   17.8581   -9.0517   14.4534 C   0  0  0  0  0  0  0  0  0  0  0  0
   18.4379  -10.3155   14.4155 C   0  0  0  0  0  0  0  0  0  0  0  0
   19.2331  -10.6575   13.3803 O   0  0  0  0  0  0  0  0  0  0  0  0
   18.8339  -10.6942   12.0118 C   0  0  0  0  0  0  0  0  0  0  0  0
   18.4109   -9.4415   11.6048 F   0  0  0  0  0  0  0  0  0  0  0  0
   17.7864  -11.5840   11.8744 F   0  0  0  0  0  0  0  0  0  0  0  0
   19.8858  -11.1178   11.2195 F   0  0  0  0  0  0  0  0  0  0  0  0
   18.2134  -11.2421   15.4293 C   0  0  0  0  0  0  0  0  0  0  0  0
   17.3940  -10.8939   16.4980 C   0  0  0  0  0  0  0  0  0  0  0  0
   14.9870   -7.4387   19.1135 C   0  0  0  0  0  0  0  0  0  0  0  0
   13.6922   -7.0065   19.3814 C   0  0  0  0  0  0  0  0  0  0  0  0
   13.3994   -6.4902   20.6397 C   0  0  0  0  0  0  0  0  0  0  0  0
   14.3793   -6.4027   21.6233 C   0  0  0  0  0  0  0  0  0  0  0  0
   15.6676   -6.8413   21.3336 C   0  0  0  0  0  0  0  0  0  0  0  0
   16.7467   -6.7509   22.4010 C   0  0  0  0  0  0  0  0  0  0  0  0
   16.9696   -5.3551   22.8454 N   0  3  0  0  0  0  0  0  0  0  0  0
   18.0151   -5.2794   23.8777 C   0  0  0  0  0  0  0  0  0  0  0  0
   18.1867   -3.8582   24.3898 C   0  0  0  0  0  0  0  0  0  0  0  0
   17.3130   -2.9500   23.7283 O   0  0  0  0  0  0  0  0  0  0  0  0
   15.9450   -3.3326   23.8079 C   0  0  0  0  0  0  0  0  0  0  0  0
   15.7225   -4.7678   23.3593 C   0  0  0  0  0  0  0  0  0  0  0  0
   15.9823   -7.3608   20.0820 C   0  0  0  0  0  0  0  0  0  0  0  0
   15.8124   -9.9492   18.3692 H   0  0  0  0  0  0  0  0  0  0  0  0
   16.6163   -7.8068   15.5652 H   0  0  0  0  0  0  0  0  0  0  0  0
   18.0275   -8.3951   13.7185 H   0  0  0  0  0  0  0  0  0  0  0  0
   18.6361  -12.1475   15.3899 H   0  0  0  0  0  0  0  0  0  0  0  0
   17.2247  -11.5506   17.2328 H   0  0  0  0  0  0  0  0  0  0  0  0
   12.9821   -7.0659   18.6798 H   0  0  0  0  0  0  0  0  0  0  0  0
   12.4709   -6.1775   20.8401 H   0  0  0  0  0  0  0  0  0  0  0  0
   14.1610   -6.0300   22.5252 H   0  0  0  0  0  0  0  0  0  0  0  0
   17.6015   -7.1116   22.0278 H   0  0  0  0  0  0  0  0  0  0  0  0
   16.4689   -7.3005   23.1889 H   0  0  0  0  0  0  0  0  0  0  0  0
   17.2678   -4.8181   22.0563 H   0  0  0  0  0  0  0  0  0  0  0  0
   18.8812   -5.5913   23.4871 H   0  0  0  0  0  0  0  0  0  0  0  0
   17.7614   -5.8723   24.6419 H   0  0  0  0  0  0  0  0  0  0  0  0
   17.9898   -3.8412   25.3701 H   0  0  0  0  0  0  0  0  0  0  0  0
   19.1315   -3.5698   24.2345 H   0  0  0  0  0  0  0  0  0  0  0  0
   15.4064   -2.7255   23.2237 H   0  0  0  0  0  0  0  0  0  0  0  0
   15.6396   -3.2406   24.7557 H   0  0  0  0  0  0  0  0  0  0  0  0
   15.4020   -5.3083   24.1372 H   0  0  0  0  0  0  0  0  0  0  0  0
   15.0316   -4.7818   22.6365 H   0  0  0  0  0  0  0  0  0  0  0  0
   16.9106   -7.6738   19.8816 H   0  0  0  0  0  0  0  0  0  0  0  0
  1  2  2  0  0  0  0
  2  3  1  0  0  0  0
  3  4  1  0  0  0  0
  4  5  2  0  0  0  0
  5  6  1  0  0  0  0
  6  7  2  0  0  0  0
  7  8  1  0  0  0  0
  8  9  1  0  0  0  0
  9 10  1  0  0  0  0
  9 11  1  0  0  0  0
  9 12  1  0  0  0  0
  7 13  1  0  0  0  0
 13 14  2  0  0  0  0
  2 15  1  0  0  0  0
 15 16  2  0  0  0  0
 16 17  1  0  0  0  0
 17 18  2  0  0  0  0
 18 19  1  0  0  0  0
 19 20  1  0  0  0  0
 20 21  1  0  0  0  0
 21 22  1  0  0  0  0
 22 23  1  0  0  0  0
 23 24  1  0  0  0  0
 24 25  1  0  0  0  0
 25 26  1  0  0  0  0
 19 27  2  0  0  0  0
 14  4  1  0  0  0  0
 27 15  1  0  0  0  0
 26 21  1  0  0  0  0
  3 28  1  0  0  0  0
  5 29  1  0  0  0  0
  6 30  1  0  0  0  0
 13 31  1  0  0  0  0
 14 32  1  0  0  0  0
 16 33  1  0  0  0  0
 17 34  1  0  0  0  0
 18 35  1  0  0  0  0
 20 36  1  0  0  0  0
 20 37  1  0  0  0  0
 21 38  1  0  0  0  0
 22 39  1  0  0  0  0
 22 40  1  0  0  0  0
 23 41  1  0  0  0  0
 23 42  1  0  0  0  0
 25 43  1  0  0  0  0
 25 44  1  0  0  0  0
 26 45  1  0  0  0  0
 26 46  1  0  0  0  0
 27 47  1  0  0  0  0
M  CHG  1  21   1
M  END
>  <docking-score>
-23.10

$$$$
6HD6_FYH_3
foFlexX   03192110193D 1   1.00000     0.00000     0
FlexX 4.5.0 fol007
 47 49  0  0  0  0            999 V2000
   14.1065   -8.3859   17.4875 O   0  0  0  0  0  0  0  0  0  0  0  0
   15.0635   -8.1919   18.2870 C   0  0  0  0  0  0  0  0  0  0  0  0
   16.2937   -8.9156   18.1132 N   0  0  0  0  0  0  0  0  0  0  0  0
   16.7845   -9.3617   16.8370 C   0  0  0  0  0  0  0  0  0  0  0  0
   17.0500   -8.4294   15.8389 C   0  0  0  0  0  0  0  0  0  0  0  0
   17.5252   -8.8517   14.6011 C   0  0  0  0  0  0  0  0  0  0  0  0
   17.7283  -10.2097   14.3791 C   0  0  0  0  0  0  0  0  0  0  0  0
   18.1881  -10.6321   13.1828 O   0  0  0  0  0  0  0  0  0  0  0  0
   19.4004  -11.3532   12.9741 C   0  0  0  0  0  0  0  0  0  0  0  0
   19.3710  -12.5475   13.6717 F   0  0  0  0  0  0  0  0  0  0  0  0
   20.4583  -10.5943   13.4357 F   0  0  0  0  0  0  0  0  0  0  0  0
   19.5830  -11.5988   11.6251 F   0  0  0  0  0  0  0  0  0  0  0  0
   17.4649  -11.1494   15.3714 C   0  0  0  0  0  0  0  0  0  0  0  0
   16.9905  -10.7183   16.6058 C   0  0  0  0  0  0  0  0  0  0  0  0
   14.8858   -7.2566   19.4246 C   0  0  0  0  0  0  0  0  0  0  0  0
   13.8719   -6.3050   19.3864 C   0  0  0  0  0  0  0  0  0  0  0  0
   13.7202   -5.4362   20.4624 C   0  0  0  0  0  0  0  0  0  0  0  0
   14.5645   -5.5089   21.5656 C   0  0  0  0  0  0  0  0  0  0  0  0
   15.5717   -6.4688   21.5828 C   0  0  0  0  0  0  0  0  0  0  0  0
   16.5002   -6.5578   22.7836 C   0  0  0  0  0  0  0  0  0  0  0  0
   17.2476   -5.2968   22.9995 N   0  3  0  0  0  0  0  0  0  0  0  0
   16.9683   -4.7127   24.3191 C   0  0  0  0  0  0  0  0  0  0  0  0
   17.7298   -3.4091   24.5182 C   0  0  0  0  0  0  0  0  0  0  0  0
   18.6131   -3.1464   23.4334 O   0  0  0  0  0  0  0  0  0  0  0  0
   19.4765   -4.2379   23.1354 C   0  0  0  0  0  0  0  0  0  0  0  0
   18.6975   -5.5211   22.8922 C   0  0  0  0  0  0  0  0  0  0  0  0
   15.7412   -7.3474   20.5177 C   0  0  0  0  0  0  0  0  0  0  0  0
   16.8391   -9.1205   18.9260 H   0  0  0  0  0  0  0  0  0  0  0  0
   16.8992   -7.4559   16.0111 H   0  0  0  0  0  0  0  0  0  0  0  0
   17.7184   -8.1867   13.8797 H   0  0  0  0  0  0  0  0  0  0  0  0
   17.6150  -12.1229   15.1989 H   0  0  0  0  0  0  0  0  0  0  0  0
   16.7974  -11.3833   17.3272 H   0  0  0  0  0  0  0  0  0  0  0  0
   13.2608   -6.2463   18.5969 H   0  0  0  0  0  0  0  0  0  0  0  0
   12.9936   -4.7494   20.4424 H   0  0  0  0  0  0  0  0  0  0  0  0
   14.4493   -4.8805   22.3349 H   0  0  0  0  0  0  0  0  0  0  0  0
   17.1541   -7.2992   22.6323 H   0  0  0  0  0  0  0  0  0  0  0  0
   15.9560   -6.7546   23.5992 H   0  0  0  0  0  0  0  0  0  0  0  0
   16.9742   -4.6403   22.2965 H   0  0  0  0  0  0  0  0  0  0  0  0
   17.2432   -5.3623   25.0279 H   0  0  0  0  0  0  0  0  0  0  0  0
   15.9877   -4.5321   24.3947 H   0  0  0  0  0  0  0  0  0  0  0  0
   17.0737   -2.6581   24.5914 H   0  0  0  0  0  0  0  0  0  0  0  0
   18.2622   -3.4702   25.3625 H   0  0  0  0  0  0  0  0  0  0  0  0
   20.0994   -4.3779   23.9050 H   0  0  0  0  0  0  0  0  0  0  0  0
   20.0044   -4.0189   22.3148 H   0  0  0  0  0  0  0  0  0  0  0  0
   18.9073   -5.8603   21.9752 H   0  0  0  0  0  0  0  0  0  0  0  0
   18.9725   -6.2023   23.5707 H   0  0  0  0  0  0  0  0  0  0  0  0
   16.4677   -8.0344   20.5376 H   0  0  0  0  0  0  0  0  0  0  0  0
  1  2  2  0  0  0  0
  2  3  1  0  0  0  0
  3  4  1  0  0  0  0
  4  5  2  0  0  0  0
  5  6  1  0  0  0  0
  6  7  2  0  0  0  0
  7  8  1  0  0  0  0
  8  9  1  0  0  0  0
  9 10  1  0  0  0  0
  9 11  1  0  0  0  0
  9 12  1  0  0  0  0
  7 13  1  0  0  0  0
 13 14  2  0  0  0  0
  2 15  1  0  0  0  0
 15 16  2  0  0  0  0
 16 17  1  0  0  0  0
 17 18  2  0  0  0  0
 18 19  1  0  0  0  0
 19 20  1  0  0  0  0
 20 21  1  0  0  0  0
 21 22  1  0  0  0  0
 22 23  1  0  0  0  0
 23 24  1  0  0  0  0
 24 25  1  0  0  0  0
 25 26  1  0  0  0  0
 19 27  2  0  0  0  0
 14  4  1  0  0  0  0
 27 15  1  0  0  0  0
 26 21  1  0  0  0  0
  3 28  1  0  0  0  0
  5 29  1  0  0  0  0
  6 30  1  0  0  0  0
 13 31  1  0  0  0  0
 14 32  1  0  0  0  0
 16 33  1  0  0  0  0
 17 34  1  0  0  0  0
 18 35  1  0  0  0  0
 20 36  1  0  0  0  0
 20 37  1  0  0  0  0
 21 38  1  0  0  0  0
 22 39  1  0  0  0  0
 22 40  1  0  0  0  0
 23 41  1  0  0  0  0
 23 42  1  0  0  0  0
 25 43  1  0  0  0  0
 25 44  1  0  0  0  0
 26 45  1  0  0  0  0
 26 46  1  0  0  0  0
 27 47  1  0  0  0  0
M  CHG  1  21   1
M  END
>  <docking-score>
-21.92

$$$$
6HD4_FYW_1
foFlexX   03192110193D 1   1.00000     0.00000     0
FlexX 4.5.0 fol007
 50 53  0  0  0  0            999 V2000
   15.6222  -10.3245    8.0359 O   0  0  0  0  0  0  0  0  0  0  0  0
   16.4999  -10.1899    8.9298 C   0  0  0  0  0  0  0  0  0  0  0  0
   16.3513  -10.9193   10.1597 N   0  0  0  0  0  0  0  0  0  0  0  0
   16.8366  -10.4677   11.4366 C   0  0  0  0  0  0  0  0  0  0  0  0
   16.3709   -9.2669   11.9630 C   0  0  0  0  0  0  0  0  0  0  0  0
   16.8345   -8.8223   13.1974 C   0  0  0  0  0  0  0  0  0  0  0  0
   17.7638   -9.5908   13.8905 C   0  0  0  0  0  0  0  0  0  0  0  0
   18.2218   -9.1703   15.0882 O   0  0  0  0  0  0  0  0  0  0  0  0
   17.6350   -9.4823   16.3498 C   0  0  0  0  0  0  0  0  0  0  0  0
   17.6272  -10.8518   16.5464 F   0  0  0  0  0  0  0  0  0  0  0  0
   16.3324   -9.0229   16.3640 F   0  0  0  0  0  0  0  0  0  0  0  0
   18.3372   -8.8632   17.3683 F   0  0  0  0  0  0  0  0  0  0  0  0
   18.2356  -10.7928   13.3714 C   0  0  0  0  0  0  0  0  0  0  0  0
   17.7664  -11.2298   12.1371 C   0  0  0  0  0  0  0  0  0  0  0  0
   17.6723   -9.3190    8.6692 C   0  0  0  0  0  0  0  0  0  0  0  0
   18.4439   -8.8024    9.7052 C   0  0  0  0  0  0  0  0  0  0  0  0
   19.5016   -8.0168    9.4524 N   0  0  0  0  0  0  0  0  0  0  0  0
   19.8546   -7.6999    8.1976 C   0  0  0  0  0  0  0  0  0  0  0  0
   20.9645   -6.8772    7.9695 N   0  0  0  0  0  0  0  0  0  0  0  0
   22.1775   -7.2387    7.2319 C   0  0  0  0  0  0  0  0  0  0  0  0
   22.6056   -5.9474    6.5638 C   0  0  0  0  0  0  0  0  0  0  0  0
   21.9294   -4.8304    7.3369 C   0  0  1  0  0  0  0  0  0  0  0  0
   21.0673   -4.1402    6.4425 O   0  0  0  0  0  0  0  0  0  0  0  0
   21.1450   -5.5068    8.4446 C   0  0  0  0  0  0  0  0  0  0  0  0
   19.1181   -8.1884    7.1228 C   0  0  0  0  0  0  0  0  0  0  0  0
   19.4694   -7.8671    5.7530 C   0  0  0  0  0  0  0  0  0  0  0  0
   19.1988   -8.7565    4.7187 C   0  0  0  0  0  0  0  0  0  0  0  0
   19.5293   -8.4393    3.4587 N   0  0  0  0  0  0  0  0  0  0  0  0
   20.1225   -7.2716    3.1692 C   0  0  0  0  0  0  0  0  0  0  0  0
   20.3935   -6.3964    4.1485 N   0  0  0  0  0  0  0  0  0  0  0  0
   20.0829   -6.6634    5.4242 C   0  0  0  0  0  0  0  0  0  0  0  0
   18.0173   -9.0051    7.3588 C   0  0  0  0  0  0  0  0  0  0  0  0
   15.8787  -11.7999   10.1253 H   0  0  0  0  0  0  0  0  0  0  0  0
   15.7032   -8.7235   11.4543 H   0  0  0  0  0  0  0  0  0  0  0  0
   16.5035   -7.9604   13.5815 H   0  0  0  0  0  0  0  0  0  0  0  0
   18.9039  -11.3359   13.8798 H   0  0  0  0  0  0  0  0  0  0  0  0
   18.0975  -12.0917   11.7530 H   0  0  0  0  0  0  0  0  0  0  0  0
   18.2066   -9.0197   10.6520 H   0  0  0  0  0  0  0  0  0  0  0  0
   21.9810   -7.9427    6.5495 H   0  0  0  0  0  0  0  0  0  0  0  0
   22.8869   -7.5674    7.8553 H   0  0  0  0  0  0  0  0  0  0  0  0
   23.5996   -5.8471    6.6068 H   0  0  0  0  0  0  0  0  0  0  0  0
   22.3105   -5.9364    5.6084 H   0  0  0  0  0  0  0  0  0  0  0  0
   22.6105   -4.2063    7.7198 H   0  0  0  0  0  0  0  0  0  0  0  0
   21.1731   -4.5152    5.5215 H   0  0  0  0  0  0  0  0  0  0  0  0
   21.6589   -5.4935    9.3024 H   0  0  0  0  0  0  0  0  0  0  0  0
   20.2613   -5.0584    8.5784 H   0  0  0  0  0  0  0  0  0  0  0  0
   18.7577   -9.6324    4.9148 H   0  0  0  0  0  0  0  0  0  0  0  0
   20.3626   -7.0537    2.2233 H   0  0  0  0  0  0  0  0  0  0  0  0
   20.2923   -5.9971    6.1399 H   0  0  0  0  0  0  0  0  0  0  0  0
   17.4799   -9.3626    6.5950 H   0  0  0  0  0  0  0  0  0  0  0  0
  1  2  2  0  0  0  0
  2  3  1  0  0  0  0
  3  4  1  0  0  0  0
  4  5  2  0  0  0  0
  5  6  1  0  0  0  0
  6  7  2  0  0  0  0
  7  8  1  0  0  0  0
  8  9  1  0  0  0  0
  9 10  1  0  0  0  0
  9 11  1  0  0  0  0
  9 12  1  0  0  0  0
  7 13  1  0  0  0  0
 13 14  2  0  0  0  0
  2 15  1  0  0  0  0
 15 16  2  0  0  0  0
 16 17  1  0  0  0  0
 17 18  2  0  0  0  0
 18 19  1  0  0  0  0
 19 20  1  0  0  0  0
 20 21  1  0  0  0  0
 21 22  1  0  0  0  0
 22 23  1  0  0  0  0
 22 24  1  0  0  0  0
 18 25  1  0  0  0  0
 25 26  1  0  0  0  0
 26 27  2  0  0  0  0
 27 28  1  0  0  0  0
 28 29  2  0  0  0  0
 29 30  1  0  0  0  0
 30 31  2  0  0  0  0
 25 32  2  0  0  0  0
 14  4  1  0  0  0  0
 32 15  1  0  0  0  0
 24 19  1  0  0  0  0
 31 26  1  0  0  0  0
  3 33  1  0  0  0  0
  5 34  1  0  0  0  0
  6 35  1  0  0  0  0
 13 36  1  0  0  0  0
 14 37  1  0  0  0  0
 16 38  1  0  0  0  0
 20 39  1  0  0  0  0
 20 40  1  0  0  0  0
 21 41  1  0  0  0  0
 21 42  1  0  0  0  0
 22 43  1  0  0  0  0
 23 44  1  0  0  0  0
 24 45  1  0  0  0  0
 24 46  1  0  0  0  0
 27 47  1  0  0  0  0
 29 48  1  0  0  0  0
 31 49  1  0  0  0  0
 32 50  1  0  0  0  0
M  END
>  <docking-score>
-25.41

$$$$
6HD4_FYW_2
foFlexX   03192110193D 1   1.00000     0.00000     0
FlexX 4.5.0 fol007
 50 53  0  0  0  0            999 V2000
   22.7807   -6.7463    5.0086 O   0  0  0  0  0  0  0  0  0  0  0  0
   21.5437   -6.9859    5.0395 C   0  0  0  0  0  0  0  0  0  0  0  0
   20.8188   -6.7225    6.2528 N   0  0  0  0  0  0  0  0  0  0  0  0
   19.6859   -7.4319    6.6670 C   0  0  0  0  0  0  0  0  0  0  0  0
   19.1981   -8.4689    5.8781 C   0  0  0  0  0  0  0  0  0  0  0  0
   18.0722   -9.1799    6.2820 C   0  0  0  0  0  0  0  0  0  0  0  0
   17.4470   -8.8396    7.4770 C   0  0  0  0  0  0  0  0  0  0  0  0
   16.3095   -9.5485    7.8958 O   0  0  0  0  0  0  0  0  0  0  0  0
   16.1997  -10.2846    9.1121 C   0  0  0  0  0  0  0  0  0  0  0  0
   17.1534  -11.2868    9.1507 F   0  0  0  0  0  0  0  0  0  0  0  0
   14.9458  -10.8604    9.1759 F   0  0  0  0  0  0  0  0  0  0  0  0
   16.3582   -9.4402   10.1964 F   0  0  0  0  0  0  0  0  0  0  0  0
   17.9275   -7.8034    8.2722 C   0  0  0  0  0  0  0  0  0  0  0  0
   19.0537   -7.0983    7.8608 C   0  0  0  0  0  0  0  0  0  0  0  0
   20.8724   -7.4909    3.8167 C   0  0  0  0  0  0  0  0  0  0  0  0
   19.7071   -6.9082    3.3289 C   0  0  0  0  0  0  0  0  0  0  0  0
   19.1128   -7.3766    2.2211 N   0  0  0  0  0  0  0  0  0  0  0  0
   19.6157   -8.4199    1.5442 C   0  0  0  0  0  0  0  0  0  0  0  0
   18.9698   -8.8833    0.3915 N   0  0  0  0  0  0  0  0  0  0  0  0
   18.7272   -8.0871   -0.8178 C   0  0  0  0  0  0  0  0  0  0  0  0
   18.0173   -9.0339   -1.7647 C   0  0  0  0  0  0  0  0  0  0  0  0
   17.3551  -10.0398   -0.8491 C   0  0  1  0  0  0  0  0  0  0  0  0
   17.0611  -11.2492   -1.5299 O   0  0  0  0  0  0  0  0  0  0  0  0
   18.4317  -10.2280    0.2040 C   0  0  0  0  0  0  0  0  0  0  0  0
   20.7791   -9.0415    1.9873 C   0  0  0  0  0  0  0  0  0  0  0  0
   21.3520  -10.1717    1.2820 C   0  0  0  0  0  0  0  0  0  0  0  0
   22.7233  -10.4025    1.2970 C   0  0  0  0  0  0  0  0  0  0  0  0
   23.2327  -11.4546    0.6405 N   0  0  0  0  0  0  0  0  0  0  0  0
   22.4420  -12.2987   -0.0390 C   0  0  0  0  0  0  0  0  0  0  0  0
   21.1163  -12.0985   -0.0683 N   0  0  0  0  0  0  0  0  0  0  0  0
   20.5559  -11.0634    0.5718 C   0  0  0  0  0  0  0  0  0  0  0  0
   21.4141   -8.5743    3.1332 C   0  0  0  0  0  0  0  0  0  0  0  0
   21.1463   -5.9826    6.8403 H   0  0  0  0  0  0  0  0  0  0  0  0
   19.6565   -8.7032    5.0208 H   0  0  0  0  0  0  0  0  0  0  0  0
   17.7168   -9.9266    5.7198 H   0  0  0  0  0  0  0  0  0  0  0  0
   17.4686   -7.5687    9.1291 H   0  0  0  0  0  0  0  0  0  0  0  0
   19.4091   -6.3516    8.4231 H   0  0  0  0  0  0  0  0  0  0  0  0
   19.3067   -6.1289    3.8109 H   0  0  0  0  0  0  0  0  0  0  0  0
   19.5907   -7.7742   -1.2134 H   0  0  0  0  0  0  0  0  0  0  0  0
   18.1500   -7.2972   -0.6103 H   0  0  0  0  0  0  0  0  0  0  0  0
   17.3351   -8.5464   -2.3096 H   0  0  0  0  0  0  0  0  0  0  0  0
   18.6707   -9.4838   -2.3735 H   0  0  0  0  0  0  0  0  0  0  0  0
   16.5271   -9.6543   -0.4418 H   0  0  0  0  0  0  0  0  0  0  0  0
   17.2173  -12.0234   -0.9167 H   0  0  0  0  0  0  0  0  0  0  0  0
   18.0407  -10.5777    1.0554 H   0  0  0  0  0  0  0  0  0  0  0  0
   19.1411  -10.8543   -0.1190 H   0  0  0  0  0  0  0  0  0  0  0  0
   23.3292   -9.7839    1.7973 H   0  0  0  0  0  0  0  0  0  0  0  0
   22.8410  -13.0771   -0.5236 H   0  0  0  0  0  0  0  0  0  0  0  0
   19.5651  -10.9321    0.5387 H   0  0  0  0  0  0  0  0  0  0  0  0
   22.2508   -9.0124    3.4619 H   0  0  0  0  0  0  0  0  0  0  0  0
  1  2  2  0  0  0  0
  2  3  1  0  0  0  0
  3  4  1  0  0  0  0
  4  5  2  0  0  0  0
  5  6  1  0  0  0  0
  6  7  2  0  0  0  0
  7  8  1  0  0  0  0
  8  9  1  0  0  0  0
  9 10  1  0  0  0  0
  9 11  1  0  0  0  0
  9 12  1  0  0  0  0
  7 13  1  0  0  0  0
 13 14  2  0  0  0  0
  2 15  1  0  0  0  0
 15 16  2  0  0  0  0
 16 17  1  0  0  0  0
 17 18  2  0  0  0  0
 18 19  1  0  0  0  0
 19 20  1  0  0  0  0
 20 21  1  0  0  0  0
 21 22  1  0  0  0  0
 22 23  1  0  0  0  0
 22 24  1  0  0  0  0
 18 25  1  0  0  0  0
 25 26  1  0  0  0  0
 26 27  2  0  0  0  0
 27 28  1  0  0  0  0
 28 29  2  0  0  0  0
 29 30  1  0  0  0  0
 30 31  2  0  0  0  0
 25 32  2  0  0  0  0
 14  4  1  0  0  0  0
 32 15  1  0  0  0  0
 24 19  1  0  0  0  0
 31 26  1  0  0  0  0
  3 33  1  0  0  0  0
  5 34  1  0  0  0  0
  6 35  1  0  0  0  0
 13 36  1  0  0  0  0
 14 37  1  0  0  0  0
 16 38  1  0  0  0  0
 20 39  1  0  0  0  0
 20 40  1  0  0  0  0
 21 41  1  0  0  0  0
 21 42  1  0  0  0  0
 22 43  1  0  0  0  0
 23 44  1  0  0  0  0
 24 45  1  0  0  0  0
 24 46  1  0  0  0  0
 27 47  1  0  0  0  0
 29 48  1  0  0  0  0
 31 49  1  0  0  0  0
 32 50  1  0  0  0  0
M  END
>  <docking-score>
-8.42

$$$$
6HD4_FYW_3
foFlexX   03192110193D 1   1.00000     0.00000     0
FlexX 4.5.0 fol007
 50 53  0  0  0  0            999 V2000
   24.8272   -7.2328    4.4795 O   0  0  0  0  0  0  0  0  0  0  0  0
   23.6039   -7.1236    4.7628 C   0  0  0  0  0  0  0  0  0  0  0  0
   23.2365   -6.5655    6.0357 N   0  0  0  0  0  0  0  0  0  0  0  0
   22.0749   -6.9004    6.7405 C   0  0  0  0  0  0  0  0  0  0  0  0
   21.1913   -7.8325    6.2054 C   0  0  0  0  0  0  0  0  0  0  0  0
   20.0337   -8.1718    6.8991 C   0  0  0  0  0  0  0  0  0  0  0  0
   19.7759   -7.5687    8.1256 C   0  0  0  0  0  0  0  0  0  0  0  0
   18.6109   -7.9015    8.8356 O   0  0  0  0  0  0  0  0  0  0  0  0
   18.2733   -9.2075    9.2978 C   0  0  0  0  0  0  0  0  0  0  0  0
   18.1795  -10.0821    8.2293 F   0  0  0  0  0  0  0  0  0  0  0  0
   17.0507   -9.1541    9.9383 F   0  0  0  0  0  0  0  0  0  0  0  0
   19.2266   -9.6574   10.1936 F   0  0  0  0  0  0  0  0  0  0  0  0
   20.6536   -6.6349    8.6682 C   0  0  0  0  0  0  0  0  0  0  0  0
   21.8085   -6.3019    7.9681 C   0  0  0  0  0  0  0  0  0  0  0  0
   22.5887   -7.5351    3.7625 C   0  0  0  0  0  0  0  0  0  0  0  0
   21.5295   -6.7041    3.4115 C   0  0  0  0  0  0  0  0  0  0  0  0
   20.6201   -7.0911    2.5043 N   0  0  0  0  0  0  0  0  0  0  0  0
   20.6955   -8.2881    1.9035 C   0  0  0  0  0  0  0  0  0  0  0  0
   19.7292   -8.6603    0.9611 N   0  0  0  0  0  0  0  0  0  0  0  0
   18.8376   -9.8167    1.0722 C   0  0  0  0  0  0  0  0  0  0  0  0
   18.5755  -10.2394   -0.3627 C   0  0  0  0  0  0  0  0  0  0  0  0
   18.8276   -9.0064   -1.2119 C   0  0  1  0  0  0  0  0  0  0  0  0
   17.6081   -8.4775   -1.7101 O   0  0  0  0  0  0  0  0  0  0  0  0
   19.4271   -7.9624   -0.2908 C   0  0  0  0  0  0  0  0  0  0  0  0
   21.7339   -9.1599    2.2168 C   0  0  0  0  0  0  0  0  0  0  0  0
   21.8479  -10.4618    1.5882 C   0  0  0  0  0  0  0  0  0  0  0  0
   23.0470  -10.8779    1.0197 C   0  0  0  0  0  0  0  0  0  0  0  0
   23.1323  -12.0865    0.4456 N   0  0  0  0  0  0  0  0  0  0  0  0
   22.0762  -12.9125    0.4053 C   0  0  0  0  0  0  0  0  0  0  0  0
   20.9089  -12.5351    0.9471 N   0  0  0  0  0  0  0  0  0  0  0  0
   20.7702  -11.3387    1.5341 C   0  0  0  0  0  0  0  0  0  0  0  0
   22.6894   -8.7818    3.1540 C   0  0  0  0  0  0  0  0  0  0  0  0
   23.8526   -5.8926    6.4452 H   0  0  0  0  0  0  0  0  0  0  0  0
   21.3881   -8.2585    5.3223 H   0  0  0  0  0  0  0  0  0  0  0  0
   19.3948   -8.8413    6.5202 H   0  0  0  0  0  0  0  0  0  0  0  0
   20.4564   -6.2083    9.5509 H   0  0  0  0  0  0  0  0  0  0  0  0
   22.4473   -5.6324    8.3470 H   0  0  0  0  0  0  0  0  0  0  0  0
   21.4448   -5.8054    3.8417 H   0  0  0  0  0  0  0  0  0  0  0  0
   17.9840   -9.5616    1.5263 H   0  0  0  0  0  0  0  0  0  0  0  0
   19.2791  -10.5548    1.5824 H   0  0  0  0  0  0  0  0  0  0  0  0
   19.1969  -10.9770   -0.6271 H   0  0  0  0  0  0  0  0  0  0  0  0
   17.6297  -10.5467   -0.4676 H   0  0  0  0  0  0  0  0  0  0  0  0
   19.4540   -9.2167   -1.9625 H   0  0  0  0  0  0  0  0  0  0  0  0
   16.9911   -8.2864   -0.9467 H   0  0  0  0  0  0  0  0  0  0  0  0
   20.2630   -7.5852   -0.6895 H   0  0  0  0  0  0  0  0  0  0  0  0
   18.7725   -7.2241   -0.1286 H   0  0  0  0  0  0  0  0  0  0  0  0
   23.8453  -10.2759    1.0392 H   0  0  0  0  0  0  0  0  0  0  0  0
   22.1592  -13.8096   -0.0287 H   0  0  0  0  0  0  0  0  0  0  0  0
   19.8917  -11.0764    1.9333 H   0  0  0  0  0  0  0  0  0  0  0  0
   23.4405   -9.3992    3.3877 H   0  0  0  0  0  0  0  0  0  0  0  0
  1  2  2  0  0  0  0
  2  3  1  0  0  0  0
  3  4  1  0  0  0  0
  4  5  2  0  0  0  0
  5  6  1  0  0  0  0
  6  7  2  0  0  0  0
  7  8  1  0  0  0  0
  8  9  1  0  0  0  0
  9 10  1  0  0  0  0
  9 11  1  0  0  0  0
  9 12  1  0  0  0  0
  7 13  1  0  0  0  0
 13 14  2  0  0  0  0
  2 15  1  0  0  0  0
 15 16  2  0  0  0  0
 16 17  1  0  0  0  0
 17 18  2  0  0  0  0
 18 19  1  0  0  0  0
 19 20  1  0  0  0  0
 20 21  1  0  0  0  0
 21 22  1  0  0  0  0
 22 23  1  0  0  0  0
 22 24  1  0  0  0  0
 18 25  1  0  0  0  0
 25 26  1  0  0  0  0
 26 27  2  0  0  0  0
 27 28  1  0  0  0  0
 28 29  2  0  0  0  0
 29 30  1  0  0  0  0
 30 31  2  0  0  0  0
 25 32  2  0  0  0  0
 14  4  1  0  0  0  0
 32 15  1  0  0  0  0
 24 19  1  0  0  0  0
 31 26  1  0  0  0  0
  3 33  1  0  0  0  0
  5 34  1  0  0  0  0
  6 35  1  0  0  0  0
 13 36  1  0  0  0  0
 14 37  1  0  0  0  0
 16 38  1  0  0  0  0
 20 39  1  0  0  0  0
 20 40  1  0  0  0  0
 21 41  1  0  0  0  0
 21 42  1  0  0  0  0
 22 43  1  0  0  0  0
 23 44  1  0  0  0  0
 24 45  1  0  0  0  0
 24 46  1  0  0  0  0
 27 47  1  0  0  0  0
 29 48  1  0  0  0  0
 31 49  1  0  0  0  0
 32 50  1  0  0  0  0
M  END
>  <docking-score>
-7.88

$$$$
2QOH_P3Y_1
foFlexX   03192110193D 1   1.00000     0.00000     0
FlexX 4.5.0 fol007
 48 51  0  0  0  0            999 V2000
   19.7905  -12.2750   13.9589 C   0  0  0  0  0  0  0  0  0  0  0  0
   19.1890  -11.2037   13.2388 O   0  0  0  0  0  0  0  0  0  0  0  0
   18.5419  -10.1631   13.8062 C   0  0  0  0  0  0  0  0  0  0  0  0
   18.9391   -9.7413   15.0707 C   0  0  0  0  0  0  0  0  0  0  0  0
   18.2924   -8.6720   15.6823 C   0  0  0  0  0  0  0  0  0  0  0  0
   17.2484   -8.0248   15.0296 C   0  0  0  0  0  0  0  0  0  0  0  0
   16.8510   -8.4461   13.7646 C   0  0  0  0  0  0  0  0  0  0  0  0
   17.4974   -9.5156   13.1531 C   0  0  0  0  0  0  0  0  0  0  0  0
   17.0827   -9.9554   11.8341 C   0  0  0  0  0  0  0  0  0  0  0  0
   16.0641  -10.8265   11.5833 C   0  0  0  0  0  0  0  0  0  0  0  0
   15.9957  -10.9788   10.2301 N   0  0  0  0  0  0  0  0  0  0  0  0
   16.9655  -10.2124    9.6287 C   0  0  0  0  0  0  0  0  0  0  0  0
   17.3329   -9.9965    8.3551 N   0  0  0  0  0  0  0  0  0  0  0  0
   18.3408   -9.1704    8.0315 C   0  0  0  0  0  0  0  0  0  0  0  0
   19.0655   -8.4878    9.0050 C   0  0  0  0  0  0  0  0  0  0  0  0
   20.1582   -7.5854    8.6984 C   0  0  0  0  0  0  0  0  0  0  0  0
   21.2183   -7.4042    9.5806 C   0  0  0  0  0  0  0  0  0  0  0  0
   22.2208   -6.5651    9.2798 N   0  0  0  0  0  0  0  0  0  0  0  0
   22.2361   -5.8782    8.1278 C   0  0  0  0  0  0  0  0  0  0  0  0
   21.2014   -6.0215    7.2096 C   0  0  0  0  0  0  0  0  0  0  0  0
   21.1987   -5.2737    5.9337 C   0  0  0  0  0  0  0  0  0  0  0  0
   20.6529   -4.1378    5.8885 O   0  0  0  0  0  0  0  0  0  0  0  0
   21.7970   -5.8196    4.7433 N   0  0  0  0  0  0  0  0  0  0  0  0
   21.2607   -5.4676    3.4238 C   0  0  0  0  0  0  0  0  0  0  0  0
   22.8343   -6.8445    4.8754 C   0  0  0  0  0  0  0  0  0  0  0  0
   20.1498   -6.8850    7.4970 C   0  0  0  0  0  0  0  0  0  0  0  0
   18.7133   -8.6886   10.3332 C   0  0  0  0  0  0  0  0  0  0  0  0
   17.6622   -9.5541   10.6080 C   0  0  0  0  0  0  0  0  0  0  0  0
   19.0934  -12.7465   14.4989 H   0  0  0  0  0  0  0  0  0  0  0  0
   20.2050  -12.9182   13.3151 H   0  0  0  0  0  0  0  0  0  0  0  0
   20.4956  -11.9124   14.5684 H   0  0  0  0  0  0  0  0  0  0  0  0
   19.6895  -10.2066   15.5401 H   0  0  0  0  0  0  0  0  0  0  0  0
   18.5783   -8.3687   16.5913 H   0  0  0  0  0  0  0  0  0  0  0  0
   16.7834   -7.2567   15.4697 H   0  0  0  0  0  0  0  0  0  0  0  0
   16.1009   -7.9803   13.2950 H   0  0  0  0  0  0  0  0  0  0  0  0
   15.4787  -11.2693   12.2625 H   0  0  0  0  0  0  0  0  0  0  0  0
   15.3397  -11.5598    9.7483 H   0  0  0  0  0  0  0  0  0  0  0  0
   18.5767   -9.0423    7.0682 H   0  0  0  0  0  0  0  0  0  0  0  0
   21.2333   -7.9038   10.4466 H   0  0  0  0  0  0  0  0  0  0  0  0
   22.9959   -5.2595    7.9280 H   0  0  0  0  0  0  0  0  0  0  0  0
   21.3216   -4.4781    3.2924 H   0  0  0  0  0  0  0  0  0  0  0  0
   21.7908   -5.9314    2.7140 H   0  0  0  0  0  0  0  0  0  0  0  0
   20.3041   -5.7533    3.3657 H   0  0  0  0  0  0  0  0  0  0  0  0
   22.4594   -7.6385    5.3540 H   0  0  0  0  0  0  0  0  0  0  0  0
   23.1479   -7.1204    3.9668 H   0  0  0  0  0  0  0  0  0  0  0  0
   23.6041   -6.4746    5.3956 H   0  0  0  0  0  0  0  0  0  0  0  0
   19.3975   -7.0007    6.8483 H   0  0  0  0  0  0  0  0  0  0  0  0
   19.2024   -8.2232   11.0709 H   0  0  0  0  0  0  0  0  0  0  0  0
  1  2  1  0  0  0  0
  2  3  1  0  0  0  0
  3  4  2  0  0  0  0
  4  5  1  0  0  0  0
  5  6  2  0  0  0  0
  6  7  1  0  0  0  0
  7  8  2  0  0  0  0
  8  9  1  0  0  0  0
  9 10  2  0  0  0  0
 10 11  1  0  0  0  0
 11 12  1  0  0  0  0
 12 13  2  0  0  0  0
 13 14  1  0  0  0  0
 14 15  2  0  0  0  0
 15 16  1  0  0  0  0
 16 17  2  0  0  0  0
 17 18  1  0  0  0  0
 18 19  2  0  0  0  0
 19 20  1  0  0  0  0
 20 21  1  0  0  0  0
 21 22  2  0  0  0  0
 21 23  1  0  0  0  0
 23 24  1  0  0  0  0
 23 25  1  0  0  0  0
 20 26  2  0  0  0  0
 15 27  1  0  0  0  0
 27 28  2  0  0  0  0
  8  3  1  0  0  0  0
 28  9  1  0  0  0  0
 28 12  1  0  0  0  0
 26 16  1  0  0  0  0
  1 29  1  0  0  0  0
  1 30  1  0  0  0  0
  1 31  1  0  0  0  0
  4 32  1  0  0  0  0
  5 33  1  0  0  0  0
  6 34  1  0  0  0  0
  7 35  1  0  0  0  0
 10 36  1  0  0  0  0
 11 37  1  0  0  0  0
 14 38  1  0  0  0  0
 17 39  1  0  0  0  0
 19 40  1  0  0  0  0
 24 41  1  0  0  0  0
 24 42  1  0  0  0  0
 24 43  1  0  0  0  0
 25 44  1  0  0  0  0
 25 45  1  0  0  0  0
 25 46  1  0  0  0  0
 26 47  1  0  0  0  0
 27 48  1  0  0  0  0
M  END
>  <docking-score>
-30.38

$$$$
2QOH_P3Y_2
foFlexX   03192110193D 1   1.00000     0.00000     0
FlexX 4.5.0 fol007
 48 51  0  0  0  0            999 V2000
   19.7690  -12.1633   14.0749 C   0  0  0  0  0  0  0  0  0  0  0  0
   19.1696  -11.1033   13.3366 O   0  0  0  0  0  0  0  0  0  0  0  0
   18.5249  -10.0517   13.8862 C   0  0  0  0  0  0  0  0  0  0  0  0
   18.9234   -9.6091   15.1432 C   0  0  0  0  0  0  0  0  0  0  0  0
   18.2792   -8.5281   15.7366 C   0  0  0  0  0  0  0  0  0  0  0  0
   17.2364   -7.8900   15.0732 C   0  0  0  0  0  0  0  0  0  0  0  0
   16.8376   -8.3320   13.8157 C   0  0  0  0  0  0  0  0  0  0  0  0
   17.4816   -9.4132   13.2225 C   0  0  0  0  0  0  0  0  0  0  0  0
   17.0655   -9.8748   11.9113 C   0  0  0  0  0  0  0  0  0  0  0  0
   16.0449  -10.7479   11.6758 C   0  0  0  0  0  0  0  0  0  0  0  0
   15.9758  -10.9232   10.3255 N   0  0  0  0  0  0  0  0  0  0  0  0
   16.9470  -10.1694    9.7107 C   0  0  0  0  0  0  0  0  0  0  0  0
   17.3145   -9.9761    8.4335 N   0  0  0  0  0  0  0  0  0  0  0  0
   18.3241   -9.1579    8.0955 C   0  0  0  0  0  0  0  0  0  0  0  0
   19.0506   -8.4603    9.0568 C   0  0  0  0  0  0  0  0  0  0  0  0
   20.1451   -7.5656    8.7345 C   0  0  0  0  0  0  0  0  0  0  0  0
   21.2059   -7.3716    9.6131 C   0  0  0  0  0  0  0  0  0  0  0  0
   22.2101   -6.5399    9.2977 N   0  0  0  0  0  0  0  0  0  0  0  0
   22.2265   -5.8729    8.1340 C   0  0  0  0  0  0  0  0  0  0  0  0
   21.1912   -6.0298    7.2187 C   0  0  0  0  0  0  0  0  0  0  0  0
   21.1896   -5.3040    5.9302 C   0  0  0  0  0  0  0  0  0  0  0  0
   20.6463   -4.1679    5.8656 O   0  0  0  0  0  0  0  0  0  0  0  0
   21.7864   -5.8715    4.7492 N   0  0  0  0  0  0  0  0  0  0  0  0
   22.9313   -6.7811    4.8691 C   0  0  0  0  0  0  0  0  0  0  0  0
   21.3401   -5.4068    3.4343 C   0  0  0  0  0  0  0  0  0  0  0  0
   20.1378   -6.8860    7.5212 C   0  0  0  0  0  0  0  0  0  0  0  0
   18.6983   -8.6374   10.3884 C   0  0  0  0  0  0  0  0  0  0  0  0
   17.6455   -9.4958   10.6784 C   0  0  0  0  0  0  0  0  0  0  0  0
   19.0710  -12.6240   14.6231 H   0  0  0  0  0  0  0  0  0  0  0  0
   20.1819  -12.8184   13.4421 H   0  0  0  0  0  0  0  0  0  0  0  0
   20.4750  -11.7919   14.6778 H   0  0  0  0  0  0  0  0  0  0  0  0
   19.6729  -10.0679   15.6204 H   0  0  0  0  0  0  0  0  0  0  0  0
   18.5660   -8.2098   16.6401 H   0  0  0  0  0  0  0  0  0  0  0  0
   16.7732   -7.1134   15.5001 H   0  0  0  0  0  0  0  0  0  0  0  0
   16.0885   -7.8727   13.3384 H   0  0  0  0  0  0  0  0  0  0  0  0
   15.4588  -11.1777   12.3626 H   0  0  0  0  0  0  0  0  0  0  0  0
   15.3184  -11.5110    9.8539 H   0  0  0  0  0  0  0  0  0  0  0  0
   18.5599   -9.0469    7.1300 H   0  0  0  0  0  0  0  0  0  0  0  0
   21.2201   -7.8563   10.4876 H   0  0  0  0  0  0  0  0  0  0  0  0
   22.9875   -5.2594    7.9234 H   0  0  0  0  0  0  0  0  0  0  0  0
   22.6684   -7.5779    5.4132 H   0  0  0  0  0  0  0  0  0  0  0  0
   23.2173   -7.0789    3.9584 H   0  0  0  0  0  0  0  0  0  0  0  0
   23.6886   -6.3064    5.3176 H   0  0  0  0  0  0  0  0  0  0  0  0
   21.5089   -4.4245    3.3529 H   0  0  0  0  0  0  0  0  0  0  0  0
   21.8448   -5.8920    2.7203 H   0  0  0  0  0  0  0  0  0  0  0  0
   20.3617   -5.5865    3.3316 H   0  0  0  0  0  0  0  0  0  0  0  0
   19.3851   -7.0112    6.8748 H   0  0  0  0  0  0  0  0  0  0  0  0
   19.1887   -8.1605   11.1178 H   0  0  0  0  0  0  0  0  0  0  0  0
  1  2  1  0  0  0  0
  2  3  1  0  0  0  0
  3  4  2  0  0  0  0
  4  5  1  0  0  0  0
  5  6  2  0  0  0  0
  6  7  1  0  0  0  0
  7  8  2  0  0  0  0
  8  9  1  0  0  0  0
  9 10  2  0  0  0  0
 10 11  1  0  0  0  0
 11 12  1  0  0  0  0
 12 13  2  0  0  0  0
 13 14  1  0  0  0  0
 14 15  2  0  0  0  0
 15 16  1  0  0  0  0
 16 17  2  0  0  0  0
 17 18  1  0  0  0  0
 18 19  2  0  0  0  0
 19 20  1  0  0  0  0
 20 21  1  0  0  0  0
 21 22  2  0  0  0  0
 21 23  1  0  0  0  0
 23 24  1  0  0  0  0
 23 25  1  0  0  0  0
 20 26  2  0  0  0  0
 15 27  1  0  0  0  0
 27 28  2  0  0  0  0
  8  3  1  0  0  0  0
 28  9  1  0  0  0  0
 28 12  1  0  0  0  0
 26 16  1  0  0  0  0
  1 29  1  0  0  0  0
  1 30  1  0  0  0  0
  1 31  1  0  0  0  0
  4 32  1  0  0  0  0
  5 33  1  0  0  0  0
  6 34  1  0  0  0  0
  7 35  1  0  0  0  0
 10 36  1  0  0  0  0
 11 37  1  0  0  0  0
 14 38  1  0  0  0  0
 17 39  1  0  0  0  0
 19 40  1  0  0  0  0
 24 41  1  0  0  0  0
 24 42  1  0  0  0  0
 24 43  1  0  0  0  0
 25 44  1  0  0  0  0
 25 45  1  0  0  0  0
 25 46  1  0  0  0  0
 26 47  1  0  0  0  0
 27 48  1  0  0  0  0
M  END
>  <docking-score>
-30.24

$$$$
2QOH_P3Y_3
foFlexX   03192110193D 1   1.00000     0.00000     0
FlexX 4.5.0 fol007
 48 51  0  0  0  0            999 V2000
   16.2693   -8.3210   14.5792 C   0  0  0  0  0  0  0  0  0  0  0  0
   16.9569   -8.9040   13.4768 O   0  0  0  0  0  0  0  0  0  0  0  0
   17.7951   -9.9592   13.5641 C   0  0  0  0  0  0  0  0  0  0  0  0
   18.5112  -10.1454   14.7419 C   0  0  0  0  0  0  0  0  0  0  0  0
   19.3828  -11.2230   14.8631 C   0  0  0  0  0  0  0  0  0  0  0  0
   19.5386  -12.1142   13.8065 C   0  0  0  0  0  0  0  0  0  0  0  0
   18.8221  -11.9287   12.6284 C   0  0  0  0  0  0  0  0  0  0  0  0
   17.9508  -10.8509   12.5070 C   0  0  0  0  0  0  0  0  0  0  0  0
   17.2040  -10.6569   11.2781 C   0  0  0  0  0  0  0  0  0  0  0  0
   16.0148  -11.2544   10.9817 C   0  0  0  0  0  0  0  0  0  0  0  0
   15.6466  -10.8146    9.7448 N   0  0  0  0  0  0  0  0  0  0  0  0
   16.5968   -9.9475    9.2603 C   0  0  0  0  0  0  0  0  0  0  0  0
   16.7310   -9.2443    8.1240 N   0  0  0  0  0  0  0  0  0  0  0  0
   17.7852   -8.4439    7.8983 C   0  0  0  0  0  0  0  0  0  0  0  0
   18.8042   -8.2980    8.8359 C   0  0  0  0  0  0  0  0  0  0  0  0
   19.9573   -7.4427    8.6330 C   0  0  0  0  0  0  0  0  0  0  0  0
   20.9528   -7.3265    9.5975 C   0  0  0  0  0  0  0  0  0  0  0  0
   22.0127   -6.5303    9.3921 N   0  0  0  0  0  0  0  0  0  0  0  0
   22.1486   -5.8252    8.2591 C   0  0  0  0  0  0  0  0  0  0  0  0
   21.1829   -5.9041    7.2614 C   0  0  0  0  0  0  0  0  0  0  0  0
   21.3132   -5.1352    6.0049 C   0  0  0  0  0  0  0  0  0  0  0  0
   20.8248   -3.9743    5.9415 O   0  0  0  0  0  0  0  0  0  0  0  0
   21.9767   -5.6879    4.8529 N   0  0  0  0  0  0  0  0  0  0  0  0
   23.0695   -6.6514    5.0264 C   0  0  0  0  0  0  0  0  0  0  0  0
   21.6552   -5.1589    3.5259 C   0  0  0  0  0  0  0  0  0  0  0  0
   20.0739   -6.7221    7.4492 C   0  0  0  0  0  0  0  0  0  0  0  0
   18.6984   -9.0117   10.0225 C   0  0  0  0  0  0  0  0  0  0  0  0
   17.5857   -9.8237   10.2010 C   0  0  0  0  0  0  0  0  0  0  0  0
   16.9337   -7.9907   15.2496 H   0  0  0  0  0  0  0  0  0  0  0  0
   15.7119   -7.5557   14.2573 H   0  0  0  0  0  0  0  0  0  0  0  0
   15.6794   -9.0072   15.0047 H   0  0  0  0  0  0  0  0  0  0  0  0
   18.3996   -9.5047   15.5015 H   0  0  0  0  0  0  0  0  0  0  0  0
   19.8974  -11.3569   15.7100 H   0  0  0  0  0  0  0  0  0  0  0  0
   20.1655  -12.8883   13.8937 H   0  0  0  0  0  0  0  0  0  0  0  0
   18.9335  -12.5698   11.8691 H   0  0  0  0  0  0  0  0  0  0  0  0
   15.5089  -11.8935   11.5612 H   0  0  0  0  0  0  0  0  0  0  0  0
   14.8121  -11.0822    9.2632 H   0  0  0  0  0  0  0  0  0  0  0  0
   17.8399   -7.9404    7.0360 H   0  0  0  0  0  0  0  0  0  0  0  0
   20.8777   -7.8412   10.4516 H   0  0  0  0  0  0  0  0  0  0  0  0
   22.9489   -5.2395    8.1311 H   0  0  0  0  0  0  0  0  0  0  0  0
   22.7314   -7.4539    5.5181 H   0  0  0  0  0  0  0  0  0  0  0  0
   23.4135   -6.9303    4.1299 H   0  0  0  0  0  0  0  0  0  0  0  0
   23.8084   -6.2267    5.5496 H   0  0  0  0  0  0  0  0  0  0  0  0
   21.8710   -4.1829    3.4949 H   0  0  0  0  0  0  0  0  0  0  0  0
   22.1938   -5.6414    2.8352 H   0  0  0  0  0  0  0  0  0  0  0  0
   20.6813   -5.2910    3.3414 H   0  0  0  0  0  0  0  0  0  0  0  0
   19.3699   -6.7913    6.7425 H   0  0  0  0  0  0  0  0  0  0  0  0
   19.4034   -8.9431   10.7284 H   0  0  0  0  0  0  0  0  0  0  0  0
  1  2  1  0  0  0  0
  2  3  1  0  0  0  0
  3  4  2  0  0  0  0
  4  5  1  0  0  0  0
  5  6  2  0  0  0  0
  6  7  1  0  0  0  0
  7  8  2  0  0  0  0
  8  9  1  0  0  0  0
  9 10  2  0  0  0  0
 10 11  1  0  0  0  0
 11 12  1  0  0  0  0
 12 13  2  0  0  0  0
 13 14  1  0  0  0  0
 14 15  2  0  0  0  0
 15 16  1  0  0  0  0
 16 17  2  0  0  0  0
 17 18  1  0  0  0  0
 18 19  2  0  0  0  0
 19 20  1  0  0  0  0
 20 21  1  0  0  0  0
 21 22  2  0  0  0  0
 21 23  1  0  0  0  0
 23 24  1  0  0  0  0
 23 25  1  0  0  0  0
 20 26  2  0  0  0  0
 15 27  1  0  0  0  0
 27 28  2  0  0  0  0
  8  3  1  0  0  0  0
 28  9  1  0  0  0  0
 28 12  1  0  0  0  0
 26 16  1  0  0  0  0
  1 29  1  0  0  0  0
  1 30  1  0  0  0  0
  1 31  1  0  0  0  0
  4 32  1  0  0  0  0
  5 33  1  0  0  0  0
  6 34  1  0  0  0  0
  7 35  1  0  0  0  0
 10 36  1  0  0  0  0
 11 37  1  0  0  0  0
 14 38  1  0  0  0  0
 17 39  1  0  0  0  0
 19 40  1  0  0  0  0
 24 41  1  0  0  0  0
 24 42  1  0  0  0  0
 24 43  1  0  0  0  0
 25 44  1  0  0  0  0
 25 45  1  0  0  0  0
 25 46  1  0  0  0  0
 26 47  1  0  0  0  0
 27 48  1  0  0  0  0
M  END
>  <docking-score>
-29.91

$$$$
3KF4_B90_1
foFlexX   03192110193D 1   1.00000     0.00000     0
FlexX 4.5.0 fol007
 54 58  0  0  0  0            999 V2000
   18.9303  -12.6204   14.2560 C   0  0  0  0  0  0  0  0  0  0  0  0
   18.2459  -11.4875   15.0038 C   0  0  0  0  0  0  0  0  0  0  0  0
   18.1272  -11.5656   16.3867 C   0  0  0  0  0  0  0  0  0  0  0  0
   17.5040  -10.5397   17.0905 C   0  0  0  0  0  0  0  0  0  0  0  0
   16.9943   -9.4253   16.4321 C   0  0  0  0  0  0  0  0  0  0  0  0
   16.3531   -8.3008   16.8806 N   0  0  0  0  0  0  0  0  0  0  0  0
   16.0587   -7.5337   15.8527 N   0  0  0  0  0  0  0  0  0  0  0  0
   16.4904   -8.1126   14.7509 C   0  0  0  0  0  0  0  0  0  0  0  0
   17.1097   -9.3532   15.0677 C   0  0  0  0  0  0  0  0  0  0  0  0
   17.7334  -10.3707   14.3486 C   0  0  0  0  0  0  0  0  0  0  0  0
   17.8591  -10.2907   12.9056 C   0  0  0  0  0  0  0  0  0  0  0  0
   16.7909  -10.2089   12.1037 C   0  0  0  0  0  0  0  0  0  0  0  0
   16.8960  -10.1289   10.6723 N   0  0  0  0  0  0  0  0  0  0  0  0
   15.9660  -10.6078    9.7972 C   0  0  0  0  0  0  0  0  0  0  0  0
   16.3979  -10.3607    8.5800 N   0  0  0  0  0  0  0  0  0  0  0  0
   17.6028   -9.7230    8.6668 C   0  0  0  0  0  0  0  0  0  0  0  0
   18.5221   -9.2247    7.7504 C   0  0  0  0  0  0  0  0  0  0  0  0
   18.2715   -9.3390    6.3776 N   0  0  0  0  0  0  0  0  0  0  0  0
   18.9079   -8.5275    5.3762 C   0  0  0  0  0  0  0  0  0  0  0  0
   19.8318   -7.5633    5.7664 C   0  0  0  0  0  0  0  0  0  0  0  0
   20.4563   -6.7711    4.8088 C   0  0  0  0  0  0  0  0  0  0  0  0
   20.1441   -6.9570    3.4660 C   0  0  0  0  0  0  0  0  0  0  0  0
   20.9253   -5.9619    2.2424 P   0  0  0  0  0  0  0  0  0  0  0  0
   21.3198   -4.3382    2.9491 C   0  0  0  0  0  0  0  0  0  0  0  0
   19.8067   -5.7473    0.8298 C   0  0  0  0  0  0  0  0  0  0  0  0
   22.2016   -6.6181    1.7658 O   0  0  0  0  0  0  0  0  0  0  0  0
   19.2209   -7.9201    3.0727 C   0  0  0  0  0  0  0  0  0  0  0  0
   18.5979   -8.7112    4.0325 C   0  0  0  0  0  0  0  0  0  0  0  0
   19.6538   -8.6317    8.1623 N   0  0  0  0  0  0  0  0  0  0  0  0
   19.9413   -8.4974    9.4644 C   0  0  0  0  0  0  0  0  0  0  0  0
   19.0744   -8.9690   10.3716 N   0  0  0  0  0  0  0  0  0  0  0  0
   17.9351   -9.5640    9.9890 C   0  0  0  0  0  0  0  0  0  0  0  0
   18.9373  -12.4172   13.2769 H   0  0  0  0  0  0  0  0  0  0  0  0
   19.8704  -12.7158   14.5833 H   0  0  0  0  0  0  0  0  0  0  0  0
   18.4335  -13.4734   14.4158 H   0  0  0  0  0  0  0  0  0  0  0  0
   18.4897  -12.3590   16.8756 H   0  0  0  0  0  0  0  0  0  0  0  0
   17.4213  -10.6045   18.0850 H   0  0  0  0  0  0  0  0  0  0  0  0
   16.1425   -8.0956   17.8364 H   0  0  0  0  0  0  0  0  0  0  0  0
   16.3966   -7.7360   13.8293 H   0  0  0  0  0  0  0  0  0  0  0  0
   18.7720  -10.2969   12.4975 H   0  0  0  0  0  0  0  0  0  0  0  0
   15.8808  -10.2031   12.5179 H   0  0  0  0  0  0  0  0  0  0  0  0
   15.1096  -11.0646   10.0378 H   0  0  0  0  0  0  0  0  0  0  0  0
   17.6106  -10.0262    6.0759 H   0  0  0  0  0  0  0  0  0  0  0  0
   20.0468   -7.4399    6.7351 H   0  0  0  0  0  0  0  0  0  0  0  0
   21.1216   -6.0764    5.0823 H   0  0  0  0  0  0  0  0  0  0  0  0
   21.7513   -3.7668    2.2510 H   0  0  0  0  0  0  0  0  0  0  0  0
   20.4790   -3.8994    3.2661 H   0  0  0  0  0  0  0  0  0  0  0  0
   21.9467   -4.4534    3.7197 H   0  0  0  0  0  0  0  0  0  0  0  0
   19.5978   -6.6403    0.4313 H   0  0  0  0  0  0  0  0  0  0  0  0
   18.9600   -5.3136    1.1381 H   0  0  0  0  0  0  0  0  0  0  0  0
   20.2458   -5.1696    0.1417 H   0  0  0  0  0  0  0  0  0  0  0  0
   19.0059   -8.0434    2.1039 H   0  0  0  0  0  0  0  0  0  0  0  0
   17.9328   -9.4061    3.7588 H   0  0  0  0  0  0  0  0  0  0  0  0
   20.7887   -8.0526    9.7544 H   0  0  0  0  0  0  0  0  0  0  0  0
  1  2  1  0  0  0  0
  2  3  2  0  0  0  0
  3  4  1  0  0  0  0
  4  5  2  0  0  0  0
  5  6  1  0  0  0  0
  6  7  1  0  0  0  0
  7  8  2  0  0  0  0
  8  9  1  0  0  0  0
  9 10  2  0  0  0  0
 10 11  1  0  0  0  0
 11 12  2  0  0  0  0
 12 13  1  0  0  0  0
 13 14  1  0  0  0  0
 14 15  2  0  0  0  0
 15 16  1  0  0  0  0
 16 17  2  0  0  0  0
 17 18  1  0  0  0  0
 18 19  1  0  0  0  0
 19 20  2  0  0  0  0
 20 21  1  0  0  0  0
 21 22  2  0  0  0  0
 22 23  1  0  0  0  0
 23 24  1  0  0  0  0
 23 25  1  0  0  0  0
 23 26  2  0  0  0  0
 22 27  1  0  0  0  0
 27 28  2  0  0  0  0
 17 29  1  0  0  0  0
 29 30  2  0  0  0  0
 30 31  1  0  0  0  0
 31 32  2  0  0  0  0
 10  2  1  0  0  0  0
 32 13  1  0  0  0  0
  9  5  1  0  0  0  0
 32 16  1  0  0  0  0
 28 19  1  0  0  0  0
  1 33  1  0  0  0  0
  1 34  1  0  0  0  0
  1 35  1  0  0  0  0
  3 36  1  0  0  0  0
  4 37  1  0  0  0  0
  6 38  1  0  0  0  0
  8 39  1  0  0  0  0
 11 40  1  0  0  0  0
 12 41  1  0  0  0  0
 14 42  1  0  0  0  0
 18 43  1  0  0  0  0
 20 44  1  0  0  0  0
 21 45  1  0  0  0  0
 24 46  1  0  0  0  0
 24 47  1  0  0  0  0
 24 48  1  0  0  0  0
 25 49  1  0  0  0  0
 25 50  1  0  0  0  0
 25 51  1  0  0  0  0
 27 52  1  0  0  0  0
 28 53  1  0  0  0  0
 30 54  1  0  0  0  0
M  END
>  <docking-score>
-30.28

$$$$
3KF4_B90_2
foFlexX   03192110193D 1   1.00000     0.00000     0
FlexX 4.5.0 fol007
 54 58  0  0  0  0            999 V2000
   18.9303  -12.6204   14.2560 C   0  0  0  0  0  0  0  0  0  0  0  0
   18.2459  -11.4875   15.0038 C   0  0  0  0  0  0  0  0  0  0  0  0
   18.1272  -11.5656   16.3867 C   0  0  0  0  0  0  0  0  0  0  0  0
   17.5040  -10.5397   17.0905 C   0  0  0  0  0  0  0  0  0  0  0  0
   16.9943   -9.4253   16.4321 C   0  0  0  0  0  0  0  0  0  0  0  0
   16.3531   -8.3008   16.8806 N   0  0  0  0  0  0  0  0  0  0  0  0
   16.0587   -7.5337   15.8527 N   0  0  0  0  0  0  0  0  0  0  0  0
   16.4904   -8.1126   14.7509 C   0  0  0  0  0  0  0  0  0  0  0  0
   17.1097   -9.3532   15.0677 C   0  0  0  0  0  0  0  0  0  0  0  0
   17.7334  -10.3707   14.3486 C   0  0  0  0  0  0  0  0  0  0  0  0
   17.8591  -10.2907   12.9056 C   0  0  0  0  0  0  0  0  0  0  0  0
   16.7909  -10.2089   12.1037 C   0  0  0  0  0  0  0  0  0  0  0  0
   16.8960  -10.1289   10.6723 N   0  0  0  0  0  0  0  0  0  0  0  0
   15.9660  -10.6078    9.7972 C   0  0  0  0  0  0  0  0  0  0  0  0
   16.3979  -10.3607    8.5800 N   0  0  0  0  0  0  0  0  0  0  0  0
   17.6028   -9.7230    8.6668 C   0  0  0  0  0  0  0  0  0  0  0  0
   18.5221   -9.2247    7.7504 C   0  0  0  0  0  0  0  0  0  0  0  0
   18.2715   -9.3390    6.3776 N   0  0  0  0  0  0  0  0  0  0  0  0
   18.9079   -8.5275    5.3762 C   0  0  0  0  0  0  0  0  0  0  0  0
   19.8318   -7.5633    5.7664 C   0  0  0  0  0  0  0  0  0  0  0  0
   20.4563   -6.7711    4.8088 C   0  0  0  0  0  0  0  0  0  0  0  0
   20.1441   -6.9570    3.4660 C   0  0  0  0  0  0  0  0  0  0  0  0
   20.9253   -5.9619    2.2424 P   0  0  0  0  0  0  0  0  0  0  0  0
   20.3179   -6.4393    0.6008 C   0  0  0  0  0  0  0  0  0  0  0  0
   22.7214   -6.2099    2.3145 C   0  0  0  0  0  0  0  0  0  0  0  0
   20.6192   -4.5000    2.4780 O   0  0  0  0  0  0  0  0  0  0  0  0
   19.2209   -7.9201    3.0727 C   0  0  0  0  0  0  0  0  0  0  0  0
   18.5979   -8.7112    4.0325 C   0  0  0  0  0  0  0  0  0  0  0  0
   19.6538   -8.6317    8.1623 N   0  0  0  0  0  0  0  0  0  0  0  0
   19.9413   -8.4974    9.4644 C   0  0  0  0  0  0  0  0  0  0  0  0
   19.0744   -8.9690   10.3716 N   0  0  0  0  0  0  0  0  0  0  0  0
   17.9351   -9.5640    9.9890 C   0  0  0  0  0  0  0  0  0  0  0  0
   18.9373  -12.4172   13.2769 H   0  0  0  0  0  0  0  0  0  0  0  0
   19.8704  -12.7158   14.5833 H   0  0  0  0  0  0  0  0  0  0  0  0
   18.4335  -13.4734   14.4158 H   0  0  0  0  0  0  0  0  0  0  0  0
   18.4897  -12.3590   16.8756 H   0  0  0  0  0  0  0  0  0  0  0  0
   17.4213  -10.6045   18.0850 H   0  0  0  0  0  0  0  0  0  0  0  0
   16.1425   -8.0956   17.8364 H   0  0  0  0  0  0  0  0  0  0  0  0
   16.3966   -7.7360   13.8293 H   0  0  0  0  0  0  0  0  0  0  0  0
   18.7720  -10.2969   12.4975 H   0  0  0  0  0  0  0  0  0  0  0  0
   15.8808  -10.2031   12.5179 H   0  0  0  0  0  0  0  0  0  0  0  0
   15.1096  -11.0646   10.0378 H   0  0  0  0  0  0  0  0  0  0  0  0
   17.6106  -10.0262    6.0759 H   0  0  0  0  0  0  0  0  0  0  0  0
   20.0468   -7.4399    6.7351 H   0  0  0  0  0  0  0  0  0  0  0  0
   21.1216   -6.0764    5.0823 H   0  0  0  0  0  0  0  0  0  0  0  0
   20.7711   -5.8842   -0.0967 H   0  0  0  0  0  0  0  0  0  0  0  0
   20.5177   -7.4057    0.4395 H   0  0  0  0  0  0  0  0  0  0  0  0
   19.3300   -6.2910    0.5548 H   0  0  0  0  0  0  0  0  0  0  0  0
   23.0599   -5.9357    3.2146 H   0  0  0  0  0  0  0  0  0  0  0  0
   22.9311   -7.1753    2.1594 H   0  0  0  0  0  0  0  0  0  0  0  0
   23.1631   -5.6554    1.6092 H   0  0  0  0  0  0  0  0  0  0  0  0
   19.0059   -8.0434    2.1039 H   0  0  0  0  0  0  0  0  0  0  0  0
   17.9328   -9.4061    3.7588 H   0  0  0  0  0  0  0  0  0  0  0  0
   20.7887   -8.0526    9.7544 H   0  0  0  0  0  0  0  0  0  0  0  0
  1  2  1  0  0  0  0
  2  3  2  0  0  0  0
  3  4  1  0  0  0  0
  4  5  2  0  0  0  0
  5  6  1  0  0  0  0
  6  7  1  0  0  0  0
  7  8  2  0  0  0  0
  8  9  1  0  0  0  0
  9 10  2  0  0  0  0
 10 11  1  0  0  0  0
 11 12  2  0  0  0  0
 12 13  1  0  0  0  0
 13 14  1  0  0  0  0
 14 15  2  0  0  0  0
 15 16  1  0  0  0  0
 16 17  2  0  0  0  0
 17 18  1  0  0  0  0
 18 19  1  0  0  0  0
 19 20  2  0  0  0  0
 20 21  1  0  0  0  0
 21 22  2  0  0  0  0
 22 23  1  0  0  0  0
 23 24  1  0  0  0  0
 23 25  1  0  0  0  0
 23 26  2  0  0  0  0
 22 27  1  0  0  0  0
 27 28  2  0  0  0  0
 17 29  1  0  0  0  0
 29 30  2  0  0  0  0
 30 31  1  0  0  0  0
 31 32  2  0  0  0  0
 10  2  1  0  0  0  0
 32 13  1  0  0  0  0
  9  5  1  0  0  0  0
 32 16  1  0  0  0  0
 28 19  1  0  0  0  0
  1 33  1  0  0  0  0
  1 34  1  0  0  0  0
  1 35  1  0  0  0  0
  3 36  1  0  0  0  0
  4 37  1  0  0  0  0
  6 38  1  0  0  0  0
  8 39  1  0  0  0  0
 11 40  1  0  0  0  0
 12 41  1  0  0  0  0
 14 42  1  0  0  0  0
 18 43  1  0  0  0  0
 20 44  1  0  0  0  0
 21 45  1  0  0  0  0
 24 46  1  0  0  0  0
 24 47  1  0  0  0  0
 24 48  1  0  0  0  0
 25 49  1  0  0  0  0
 25 50  1  0  0  0  0
 25 51  1  0  0  0  0
 27 52  1  0  0  0  0
 28 53  1  0  0  0  0
 30 54  1  0  0  0  0
M  END
>  <docking-score>
-29.53

$$$$
3KF4_B90_3
foFlexX   03192110193D 1   1.00000     0.00000     0
FlexX 4.5.0 fol007
 54 58  0  0  0  0            999 V2000
   18.9303  -12.6204   14.2560 C   0  0  0  0  0  0  0  0  0  0  0  0
   18.2459  -11.4875   15.0038 C   0  0  0  0  0  0  0  0  0  0  0  0
   18.1272  -11.5656   16.3867 C   0  0  0  0  0  0  0  0  0  0  0  0
   17.5040  -10.5397   17.0905 C   0  0  0  0  0  0  0  0  0  0  0  0
   16.9943   -9.4253   16.4321 C   0  0  0  0  0  0  0  0  0  0  0  0
   16.3531   -8.3008   16.8806 N   0  0  0  0  0  0  0  0  0  0  0  0
   16.0587   -7.5337   15.8527 N   0  0  0  0  0  0  0  0  0  0  0  0
   16.4904   -8.1126   14.7509 C   0  0  0  0  0  0  0  0  0  0  0  0
   17.1097   -9.3532   15.0677 C   0  0  0  0  0  0  0  0  0  0  0  0
   17.7334  -10.3707   14.3486 C   0  0  0  0  0  0  0  0  0  0  0  0
   17.8591  -10.2907   12.9056 C   0  0  0  0  0  0  0  0  0  0  0  0
   16.7909  -10.2089   12.1037 C   0  0  0  0  0  0  0  0  0  0  0  0
   16.8960  -10.1289   10.6723 N   0  0  0  0  0  0  0  0  0  0  0  0
   15.9660  -10.6078    9.7972 C   0  0  0  0  0  0  0  0  0  0  0  0
   16.3979  -10.3607    8.5800 N   0  0  0  0  0  0  0  0  0  0  0  0
   17.6028   -9.7230    8.6668 C   0  0  0  0  0  0  0  0  0  0  0  0
   18.5221   -9.2247    7.7504 C   0  0  0  0  0  0  0  0  0  0  0  0
   18.2715   -9.3390    6.3776 N   0  0  0  0  0  0  0  0  0  0  0  0
   18.9079   -8.5275    5.3762 C   0  0  0  0  0  0  0  0  0  0  0  0
   19.8318   -7.5633    5.7664 C   0  0  0  0  0  0  0  0  0  0  0  0
   20.4563   -6.7711    4.8088 C   0  0  0  0  0  0  0  0  0  0  0  0
   20.1441   -6.9570    3.4660 C   0  0  0  0  0  0  0  0  0  0  0  0
   20.9253   -5.9619    2.2424 P   0  0  0  0  0  0  0  0  0  0  0  0
   22.7209   -6.2097    2.3217 C   0  0  0  0  0  0  0  0  0  0  0  0
   20.5453   -4.2142    2.5482 C   0  0  0  0  0  0  0  0  0  0  0  0
   20.4336   -6.3398    0.8633 O   0  0  0  0  0  0  0  0  0  0  0  0
   19.2209   -7.9201    3.0727 C   0  0  0  0  0  0  0  0  0  0  0  0
   18.5979   -8.7112    4.0325 C   0  0  0  0  0  0  0  0  0  0  0  0
   19.6538   -8.6317    8.1623 N   0  0  0  0  0  0  0  0  0  0  0  0
   19.9413   -8.4974    9.4644 C   0  0  0  0  0  0  0  0  0  0  0  0
   19.0744   -8.9690   10.3716 N   0  0  0  0  0  0  0  0  0  0  0  0
   17.9351   -9.5640    9.9890 C   0  0  0  0  0  0  0  0  0  0  0  0
   18.9373  -12.4172   13.2769 H   0  0  0  0  0  0  0  0  0  0  0  0
   19.8704  -12.7158   14.5833 H   0  0  0  0  0  0  0  0  0  0  0  0
   18.4335  -13.4734   14.4158 H   0  0  0  0  0  0  0  0  0  0  0  0
   18.4897  -12.3590   16.8756 H   0  0  0  0  0  0  0  0  0  0  0  0
   17.4213  -10.6045   18.0850 H   0  0  0  0  0  0  0  0  0  0  0  0
   16.1425   -8.0956   17.8364 H   0  0  0  0  0  0  0  0  0  0  0  0
   16.3966   -7.7360   13.8293 H   0  0  0  0  0  0  0  0  0  0  0  0
   18.7720  -10.2969   12.4975 H   0  0  0  0  0  0  0  0  0  0  0  0
   15.8808  -10.2031   12.5179 H   0  0  0  0  0  0  0  0  0  0  0  0
   15.1096  -11.0646   10.0378 H   0  0  0  0  0  0  0  0  0  0  0  0
   17.6106  -10.0262    6.0759 H   0  0  0  0  0  0  0  0  0  0  0  0
   20.0468   -7.4399    6.7351 H   0  0  0  0  0  0  0  0  0  0  0  0
   21.1216   -6.0764    5.0823 H   0  0  0  0  0  0  0  0  0  0  0  0
   23.1673   -5.6345    1.6362 H   0  0  0  0  0  0  0  0  0  0  0  0
   23.0518   -5.9612    3.2320 H   0  0  0  0  0  0  0  0  0  0  0  0
   22.9332   -7.1699    2.1405 H   0  0  0  0  0  0  0  0  0  0  0  0
   19.5569   -4.0733    2.4927 H   0  0  0  0  0  0  0  0  0  0  0  0
   20.8680   -3.9573    3.4591 H   0  0  0  0  0  0  0  0  0  0  0  0
   21.0017   -3.6487    1.8612 H   0  0  0  0  0  0  0  0  0  0  0  0
   19.0059   -8.0434    2.1039 H   0  0  0  0  0  0  0  0  0  0  0  0
   17.9328   -9.4061    3.7588 H   0  0  0  0  0  0  0  0  0  0  0  0
   20.7887   -8.0526    9.7544 H   0  0  0  0  0  0  0  0  0  0  0  0
  1  2  1  0  0  0  0
  2  3  2  0  0  0  0
  3  4  1  0  0  0  0
  4  5  2  0  0  0  0
  5  6  1  0  0  0  0
  6  7  1  0  0  0  0
  7  8  2  0  0  0  0
  8  9  1  0  0  0  0
  9 10  2  0  0  0  0
 10 11  1  0  0  0  0
 11 12  2  0  0  0  0
 12 13  1  0  0  0  0
 13 14  1  0  0  0  0
 14 15  2  0  0  0  0
 15 16  1  0  0  0  0
 16 17  2  0  0  0  0
 17 18  1  0  0  0  0
 18 19  1  0  0  0  0
 19 20  2  0  0  0  0
 20 21  1  0  0  0  0
 21 22  2  0  0  0  0
 22 23  1  0  0  0  0
 23 24  1  0  0  0  0
 23 25  1  0  0  0  0
 23 26  2  0  0  0  0
 22 27  1  0  0  0  0
 27 28  2  0  0  0  0
 17 29  1  0  0  0  0
 29 30  2  0  0  0  0
 30 31  1  0  0  0  0
 31 32  2  0  0  0  0
 10  2  1  0  0  0  0
 32 13  1  0  0  0  0
  9  5  1  0  0  0  0
 32 16  1  0  0  0  0
 28 19  1  0  0  0  0
  1 33  1  0  0  0  0
  1 34  1  0  0  0  0
  1 35  1  0  0  0  0
  3 36  1  0  0  0  0
  4 37  1  0  0  0  0
  6 38  1  0  0  0  0
  8 39  1  0  0  0  0
 11 40  1  0  0  0  0
 12 41  1  0  0  0  0
 14 42  1  0  0  0  0
 18 43  1  0  0  0  0
 20 44  1  0  0  0  0
 21 45  1  0  0  0  0
 24 46  1  0  0  0  0
 24 47  1  0  0  0  0
 24 48  1  0  0  0  0
 25 49  1  0  0  0  0
 25 50  1  0  0  0  0
 25 51  1  0  0  0  0
 27 52  1  0  0  0  0
 28 53  1  0  0  0  0
 30 54  1  0  0  0  0
M  END
>  <docking-score>
-29.18

$$$$
3MS9_MS9_1
foFlexX   03192110193D 1   1.00000     0.00000     0
FlexX 4.5.0 fol007
 20 20  0  0  0  0            999 V2000
   16.1065   -8.0008   15.6586 C   0  0  0  0  0  0  0  0  0  0  0  0
   15.8594   -7.4122   16.9297 O   0  0  0  0  0  0  0  0  0  0  0  0
   14.6733   -7.6208   17.6407 C   0  0  0  0  0  0  0  0  0  0  0  0
   13.6379   -8.0209   17.0398 O   0  0  0  0  0  0  0  0  0  0  0  0
   14.6432   -7.4351   19.0787 C   0  0  0  0  0  0  0  0  0  0  0  0
   13.4393   -7.0797   19.6790 C   0  0  0  0  0  0  0  0  0  0  0  0
   13.3768   -6.8943   21.0564 C   0  0  0  0  0  0  0  0  0  0  0  0
   14.5250   -7.0668   21.8229 C   0  0  0  0  0  0  0  0  0  0  0  0
   14.4508   -6.8306   23.5858 Cl  0  0  0  0  0  0  0  0  0  0  0  0
   15.7319   -7.4220   21.2291 C   0  0  0  0  0  0  0  0  0  0  0  0
   15.7882   -7.6063   19.8512 C   0  0  0  0  0  0  0  0  0  0  0  0
   17.0115   -7.9638   19.2711 N   0  0  0  0  0  0  0  0  0  0  0  0
   15.4086   -7.6980   15.0097 H   0  0  0  0  0  0  0  0  0  0  0  0
   17.0093   -7.7214   15.3317 H   0  0  0  0  0  0  0  0  0  0  0  0
   16.0754   -8.9970   15.7409 H   0  0  0  0  0  0  0  0  0  0  0  0
   12.6190   -6.9575   19.1204 H   0  0  0  0  0  0  0  0  0  0  0  0
   12.5136   -6.6391   21.4920 H   0  0  0  0  0  0  0  0  0  0  0  0
   16.5522   -7.5438   21.7879 H   0  0  0  0  0  0  0  0  0  0  0  0
   17.4308   -7.3714   18.5833 H   0  0  0  0  0  0  0  0  0  0  0  0
   17.4658   -8.8116   19.5448 H   0  0  0  0  0  0  0  0  0  0  0  0
  1  2  1  0  0  0  0
  2  3  1  0  0  0  0
  3  4  2  0  0  0  0
  3  5  1  0  0  0  0
  5  6  2  0  0  0  0
  6  7  1  0  0  0  0
  7  8  2  0  0  0  0
  8  9  1  0  0  0  0
  8 10  1  0  0  0  0
 10 11  2  0  0  0  0
 11 12  1  0  0  0  0
 11  5  1  0  0  0  0
  1 13  1  0  0  0  0
  1 14  1  0  0  0  0
  1 15  1  0  0  0  0
  6 16  1  0  0  0  0
  7 17  1  0  0  0  0
 10 18  1  0  0  0  0
 12 19  1  0  0  0  0
 12 20  1  0  0  0  0
M  END
>  <docking-score>
-14.38

$$$$
3MS9_MS9_2
foFlexX   03192110193D 1   1.00000     0.00000     0
FlexX 4.5.0 fol007
 20 20  0  0  0  0            999 V2000
   16.7283   -8.5272   16.8046 C   0  0  0  0  0  0  0  0  0  0  0  0
   15.7866   -7.5588   17.2503 O   0  0  0  0  0  0  0  0  0  0  0  0
   14.6761   -7.8899   18.0334 C   0  0  0  0  0  0  0  0  0  0  0  0
   14.4769   -9.0890   18.3730 O   0  0  0  0  0  0  0  0  0  0  0  0
   13.7823   -6.8507   18.5068 C   0  0  0  0  0  0  0  0  0  0  0  0
   14.0796   -6.2127   19.7071 C   0  0  0  0  0  0  0  0  0  0  0  0
   13.2425   -5.2113   20.1887 C   0  0  0  0  0  0  0  0  0  0  0  0
   12.1108   -4.8569   19.4613 C   0  0  0  0  0  0  0  0  0  0  0  0
   11.0359   -3.5764   20.0731 Cl  0  0  0  0  0  0  0  0  0  0  0  0
   11.8075   -5.4908   18.2606 C   0  0  0  0  0  0  0  0  0  0  0  0
   12.6485   -6.4913   17.7839 C   0  0  0  0  0  0  0  0  0  0  0  0
   12.3274   -7.1180   16.5735 N   0  0  0  0  0  0  0  0  0  0  0  0
   16.2627   -9.2109   16.2426 H   0  0  0  0  0  0  0  0  0  0  0  0
   17.4380   -8.0773   16.2625 H   0  0  0  0  0  0  0  0  0  0  0  0
   17.1462   -8.9744   17.5954 H   0  0  0  0  0  0  0  0  0  0  0  0
   14.8950   -6.4740   20.2235 H   0  0  0  0  0  0  0  0  0  0  0  0
   13.4526   -4.7500   21.0507 H   0  0  0  0  0  0  0  0  0  0  0  0
   10.9917   -5.2295   17.7446 H   0  0  0  0  0  0  0  0  0  0  0  0
   12.5923   -8.0696   16.4175 H   0  0  0  0  0  0  0  0  0  0  0  0
   11.8332   -6.6140   15.8652 H   0  0  0  0  0  0  0  0  0  0  0  0
  1  2  1  0  0  0  0
  2  3  1  0  0  0  0
  3  4  2  0  0  0  0
  3  5  1  0  0  0  0
  5  6  2  0  0  0  0
  6  7  1  0  0  0  0
  7  8  2  0  0  0  0
  8  9  1  0  0  0  0
  8 10  1  0  0  0  0
 10 11  2  0  0  0  0
 11 12  1  0  0  0  0
 11  5  1  0  0  0  0
  1 13  1  0  0  0  0
  1 14  1  0  0  0  0
  1 15  1  0  0  0  0
  6 16  1  0  0  0  0
  7 17  1  0  0  0  0
 10 18  1  0  0  0  0
 12 19  1  0  0  0  0
 12 20  1  0  0  0  0
M  END
>  <docking-score>
-13.37

$$$$
3MS9_MS9_3
foFlexX   03192110193D 1   1.00000     0.00000     0
FlexX 4.5.0 fol007
 20 20  0  0  0  0            999 V2000
   16.1972   -6.7712   24.2962 C   0  0  0  0  0  0  0  0  0  0  0  0
   15.3365   -7.1462   23.2276 O   0  0  0  0  0  0  0  0  0  0  0  0
   15.7906   -7.3135   21.9154 C   0  0  0  0  0  0  0  0  0  0  0  0
   17.0175   -7.5067   21.6908 O   0  0  0  0  0  0  0  0  0  0  0  0
   14.8477   -7.3243   20.8136 C   0  0  0  0  0  0  0  0  0  0  0  0
   13.5007   -7.1087   21.0880 C   0  0  0  0  0  0  0  0  0  0  0  0
   12.5707   -7.1124   20.0534 C   0  0  0  0  0  0  0  0  0  0  0  0
   12.9997   -7.3334   18.7485 C   0  0  0  0  0  0  0  0  0  0  0  0
   11.8139   -7.3396   17.4206 Cl  0  0  0  0  0  0  0  0  0  0  0  0
   14.3449   -7.5498   18.4671 C   0  0  0  0  0  0  0  0  0  0  0  0
   15.2704   -7.5446   19.5060 C   0  0  0  0  0  0  0  0  0  0  0  0
   16.6199   -7.7640   19.2038 N   0  0  0  0  0  0  0  0  0  0  0  0
   16.6109   -5.8833   24.0950 H   0  0  0  0  0  0  0  0  0  0  0  0
   15.6692   -6.7087   25.1432 H   0  0  0  0  0  0  0  0  0  0  0  0
   16.9164   -7.4579   24.4016 H   0  0  0  0  0  0  0  0  0  0  0  0
   13.2012   -6.9510   22.0289 H   0  0  0  0  0  0  0  0  0  0  0  0
   11.6017   -6.9576   20.2460 H   0  0  0  0  0  0  0  0  0  0  0  0
   14.6441   -7.7078   17.5261 H   0  0  0  0  0  0  0  0  0  0  0  0
   17.1028   -8.5411   19.6076 H   0  0  0  0  0  0  0  0  0  0  0  0
   17.1009   -7.1436   18.5843 H   0  0  0  0  0  0  0  0  0  0  0  0
  1  2  1  0  0  0  0
  2  3  1  0  0  0  0
  3  4  2  0  0  0  0
  3  5  1  0  0  0  0
  5  6  2  0  0  0  0
  6  7  1  0  0  0  0
  7  8  2  0  0  0  0
  8  9  1  0  0  0  0
  8 10  1  0  0  0  0
 10 11  2  0  0  0  0
 11 12  1  0  0  0  0
 11  5  1  0  0  0  0
  1 13  1  0  0  0  0
  1 14  1  0  0  0  0
  1 15  1  0  0  0  0
  6 16  1  0  0  0  0
  7 17  1  0  0  0  0
 10 18  1  0  0  0  0
 12 19  1  0  0  0  0
 12 20  1  0  0  0  0
M  END
>  <docking-score>
-13.01

$$$$
3K5V_STJ_1
foFlexX   03192110193D 1   1.00000     0.00000     0
FlexX 4.5.0 fol007
 40 42  0  0  0  0            999 V2000
   23.0794   -4.6017    6.5374 N   0  0  0  0  0  0  0  0  0  0  0  0
   21.7421   -4.9240    6.9285 C   0  0  0  0  0  0  0  0  0  0  0  0
   20.7880   -4.2671    6.4302 O   0  0  0  0  0  0  0  0  0  0  0  0
   21.4590   -5.9970    7.9135 C   0  0  0  0  0  0  0  0  0  0  0  0
   22.2857   -6.1554    9.0210 C   0  0  0  0  0  0  0  0  0  0  0  0
   22.0047   -7.1669    9.9340 C   0  0  0  0  0  0  0  0  0  0  0  0
   20.9161   -8.0135    9.7521 C   0  0  0  0  0  0  0  0  0  0  0  0
   20.1024   -7.8367    8.6374 C   0  0  0  0  0  0  0  0  0  0  0  0
   18.9642   -8.7135    8.4378 C   0  0  0  0  0  0  0  0  0  0  0  0
   18.3225   -9.2529    9.5478 C   0  0  0  0  0  0  0  0  0  0  0  0
   17.2321  -10.0927    9.3452 C   0  0  0  0  0  0  0  0  0  0  0  0
   16.5788  -10.6422   10.4558 N   0  0  0  0  0  0  0  0  0  0  0  0
   16.9629  -10.3946   11.8191 C   0  0  0  0  0  0  0  0  0  0  0  0
   16.0541   -9.8061   12.6929 C   0  0  0  0  0  0  0  0  0  0  0  0
   16.4170   -9.5629   14.0141 C   0  0  0  0  0  0  0  0  0  0  0  0
   17.6925   -9.9140   14.4434 C   0  0  0  0  0  0  0  0  0  0  0  0
   18.0570   -9.6826   15.7220 O   0  0  0  0  0  0  0  0  0  0  0  0
   17.8877  -10.5949   16.8047 C   0  0  0  0  0  0  0  0  0  0  0  0
   18.5763  -11.7679   16.5521 F   0  0  0  0  0  0  0  0  0  0  0  0
   16.5446  -10.8674   16.9934 F   0  0  0  0  0  0  0  0  0  0  0  0
   18.3917  -10.0221   17.9564 F   0  0  0  0  0  0  0  0  0  0  0  0
   18.6083  -10.5024   13.5763 C   0  0  0  0  0  0  0  0  0  0  0  0
   18.2369  -10.7422   12.2574 C   0  0  0  0  0  0  0  0  0  0  0  0
   16.8335  -10.3556    8.0912 N   0  0  0  0  0  0  0  0  0  0  0  0
   17.4624   -9.8277    7.0303 C   0  0  0  0  0  0  0  0  0  0  0  0
   18.5155   -9.0164    7.2104 N   0  0  0  0  0  0  0  0  0  0  0  0
   20.3649   -6.8318    7.7118 C   0  0  0  0  0  0  0  0  0  0  0  0
   23.2447   -3.8667    5.8798 H   0  0  0  0  0  0  0  0  0  0  0  0
   23.8493   -5.1113    6.9216 H   0  0  0  0  0  0  0  0  0  0  0  0
   23.0703   -5.5511    9.1590 H   0  0  0  0  0  0  0  0  0  0  0  0
   22.5941   -7.2871   10.7328 H   0  0  0  0  0  0  0  0  0  0  0  0
   20.7212   -8.7385   10.4127 H   0  0  0  0  0  0  0  0  0  0  0  0
   18.6385   -9.0414   10.4727 H   0  0  0  0  0  0  0  0  0  0  0  0
   15.7972  -11.2436   10.2903 H   0  0  0  0  0  0  0  0  0  0  0  0
   15.1403   -9.5580   12.3715 H   0  0  0  0  0  0  0  0  0  0  0  0
   15.7683   -9.1406   14.6473 H   0  0  0  0  0  0  0  0  0  0  0  0
   19.5224  -10.7499   13.8975 H   0  0  0  0  0  0  0  0  0  0  0  0
   18.8856  -11.1645   11.6243 H   0  0  0  0  0  0  0  0  0  0  0  0
   17.1461  -10.0388    6.1054 H   0  0  0  0  0  0  0  0  0  0  0  0
   19.7754   -6.7113    6.9131 H   0  0  0  0  0  0  0  0  0  0  0  0
  1  2  1  0  0  0  0
  2  3  2  0  0  0  0
  2  4  1  0  0  0  0
  4  5  2  0  0  0  0
  5  6  1  0  0  0  0
  6  7  2  0  0  0  0
  7  8  1  0  0  0  0
  8  9  1  0  0  0  0
  9 10  2  0  0  0  0
 10 11  1  0  0  0  0
 11 12  1  0  0  0  0
 12 13  1  0  0  0  0
 13 14  2  0  0  0  0
 14 15  1  0  0  0  0
 15 16  2  0  0  0  0
 16 17  1  0  0  0  0
 17 18  1  0  0  0  0
 18 19  1  0  0  0  0
 18 20  1  0  0  0  0
 18 21  1  0  0  0  0
 16 22  1  0  0  0  0
 22 23  2  0  0  0  0
 11 24  2  0  0  0  0
 24 25  1  0  0  0  0
 25 26  2  0  0  0  0
  8 27  2  0  0  0  0
 27  4  1  0  0  0  0
 26  9  1  0  0  0  0
 23 13  1  0  0  0  0
  1 28  1  0  0  0  0
  1 29  1  0  0  0  0
  5 30  1  0  0  0  0
  6 31  1  0  0  0  0
  7 32  1  0  0  0  0
 10 33  1  0  0  0  0
 12 34  1  0  0  0  0
 14 35  1  0  0  0  0
 15 36  1  0  0  0  0
 22 37  1  0  0  0  0
 23 38  1  0  0  0  0
 25 39  1  0  0  0  0
 27 40  1  0  0  0  0
M  END
>  <docking-score>
-32.94

$$$$
3K5V_STJ_2
foFlexX   03192110193D 1   1.00000     0.00000     0
FlexX 4.5.0 fol007
 40 42  0  0  0  0            999 V2000
   22.9969   -4.3965    6.4663 N   0  0  0  0  0  0  0  0  0  0  0  0
   21.6651   -4.7397    6.8585 C   0  0  0  0  0  0  0  0  0  0  0  0
   20.7006   -4.0959    6.3630 O   0  0  0  0  0  0  0  0  0  0  0  0
   21.3996   -5.8190    7.8413 C   0  0  0  0  0  0  0  0  0  0  0  0
   22.2300   -5.9676    8.9474 C   0  0  0  0  0  0  0  0  0  0  0  0
   21.9655   -6.9853    9.8584 C   0  0  0  0  0  0  0  0  0  0  0  0
   20.8894   -7.8476    9.6761 C   0  0  0  0  0  0  0  0  0  0  0  0
   20.0715   -7.6804    8.5629 C   0  0  0  0  0  0  0  0  0  0  0  0
   18.9462   -8.5736    8.3630 C   0  0  0  0  0  0  0  0  0  0  0  0
   18.3143   -9.1251    9.4726 C   0  0  0  0  0  0  0  0  0  0  0  0
   17.2363   -9.9806    9.2695 C   0  0  0  0  0  0  0  0  0  0  0  0
   16.5928  -10.5423   10.3798 N   0  0  0  0  0  0  0  0  0  0  0  0
   16.9752  -10.2922   11.7431 C   0  0  0  0  0  0  0  0  0  0  0  0
   16.9468   -8.9918   12.2371 C   0  0  0  0  0  0  0  0  0  0  0  0
   17.3150   -8.7402   13.5552 C   0  0  0  0  0  0  0  0  0  0  0  0
   17.7093   -9.8007   14.3642 C   0  0  0  0  0  0  0  0  0  0  0  0
   18.0695   -9.5699   15.6440 O   0  0  0  0  0  0  0  0  0  0  0  0
   17.4350  -10.1293   16.7921 C   0  0  0  0  0  0  0  0  0  0  0  0
   17.5084  -11.5102   16.7521 F   0  0  0  0  0  0  0  0  0  0  0  0
   16.1122   -9.7284   16.8488 F   0  0  0  0  0  0  0  0  0  0  0  0
   18.0849   -9.6815   17.9260 F   0  0  0  0  0  0  0  0  0  0  0  0
   17.7414  -11.1045   13.8784 C   0  0  0  0  0  0  0  0  0  0  0  0
   17.3713  -11.3469   12.5597 C   0  0  0  0  0  0  0  0  0  0  0  0
   16.8398  -10.2465    8.0155 N   0  0  0  0  0  0  0  0  0  0  0  0
   17.4592   -9.7068    6.9549 C   0  0  0  0  0  0  0  0  0  0  0  0
   18.5004   -8.8803    7.1354 N   0  0  0  0  0  0  0  0  0  0  0  0
   20.3177   -6.6696    7.6393 C   0  0  0  0  0  0  0  0  0  0  0  0
   23.1503   -3.6576    5.8101 H   0  0  0  0  0  0  0  0  0  0  0  0
   23.7749   -4.8955    6.8482 H   0  0  0  0  0  0  0  0  0  0  0  0
   23.0058   -5.3519    9.0857 H   0  0  0  0  0  0  0  0  0  0  0  0
   22.5578   -7.0985   10.6561 H   0  0  0  0  0  0  0  0  0  0  0  0
   20.7063   -8.5769   10.3353 H   0  0  0  0  0  0  0  0  0  0  0  0
   18.6285   -8.9110   10.3975 H   0  0  0  0  0  0  0  0  0  0  0  0
   15.8200  -11.1549   10.2140 H   0  0  0  0  0  0  0  0  0  0  0  0
   16.6618   -8.2381   11.6449 H   0  0  0  0  0  0  0  0  0  0  0  0
   17.2963   -7.8080   13.9166 H   0  0  0  0  0  0  0  0  0  0  0  0
   18.0270  -11.8581   14.4704 H   0  0  0  0  0  0  0  0  0  0  0  0
   17.3900  -12.2791   12.1984 H   0  0  0  0  0  0  0  0  0  0  0  0
   17.1448   -9.9206    6.0300 H   0  0  0  0  0  0  0  0  0  0  0  0
   19.7253   -6.5561    6.8417 H   0  0  0  0  0  0  0  0  0  0  0  0
  1  2  1  0  0  0  0
  2  3  2  0  0  0  0
  2  4  1  0  0  0  0
  4  5  2  0  0  0  0
  5  6  1  0  0  0  0
  6  7  2  0  0  0  0
  7  8  1  0  0  0  0
  8  9  1  0  0  0  0
  9 10  2  0  0  0  0
 10 11  1  0  0  0  0
 11 12  1  0  0  0  0
 12 13  1  0  0  0  0
 13 14  2  0  0  0  0
 14 15  1  0  0  0  0
 15 16  2  0  0  0  0
 16 17  1  0  0  0  0
 17 18  1  0  0  0  0
 18 19  1  0  0  0  0
 18 20  1  0  0  0  0
 18 21  1  0  0  0  0
 16 22  1  0  0  0  0
 22 23  2  0  0  0  0
 11 24  2  0  0  0  0
 24 25  1  0  0  0  0
 25 26  2  0  0  0  0
  8 27  2  0  0  0  0
 27  4  1  0  0  0  0
 26  9  1  0  0  0  0
 23 13  1  0  0  0  0
  1 28  1  0  0  0  0
  1 29  1  0  0  0  0
  5 30  1  0  0  0  0
  6 31  1  0  0  0  0
  7 32  1  0  0  0  0
 10 33  1  0  0  0  0
 12 34  1  0  0  0  0
 14 35  1  0  0  0  0
 15 36  1  0  0  0  0
 22 37  1  0  0  0  0
 23 38  1  0  0  0  0
 25 39  1  0  0  0  0
 27 40  1  0  0  0  0
M  END
>  <docking-score>
-31.58

$$$$
3K5V_STJ_3
foFlexX   03192110193D 1   1.00000     0.00000     0
FlexX 4.5.0 fol007
 40 42  0  0  0  0            999 V2000
   23.0076   -3.9362    7.2264 N   0  0  0  0  0  0  0  0  0  0  0  0
   21.7422   -4.6026    7.2319 C   0  0  0  0  0  0  0  0  0  0  0  0
   20.8513   -4.2219    6.4251 O   0  0  0  0  0  0  0  0  0  0  0  0
   21.4611   -5.6882    8.1509 C   0  0  0  0  0  0  0  0  0  0  0  0
   22.2372   -5.8454    9.2946 C   0  0  0  0  0  0  0  0  0  0  0  0
   21.9526   -6.8929   10.1648 C   0  0  0  0  0  0  0  0  0  0  0  0
   20.9101   -7.7763    9.9052 C   0  0  0  0  0  0  0  0  0  0  0  0
   20.1464   -7.6000    8.7555 C   0  0  0  0  0  0  0  0  0  0  0  0
   19.0565   -8.5150    8.4750 C   0  0  0  0  0  0  0  0  0  0  0  0
   18.3828   -9.1109    9.5361 C   0  0  0  0  0  0  0  0  0  0  0  0
   17.3392   -9.9870    9.2559 C   0  0  0  0  0  0  0  0  0  0  0  0
   16.6544  -10.5934   10.3168 N   0  0  0  0  0  0  0  0  0  0  0  0
   16.9595  -10.3699   11.7040 C   0  0  0  0  0  0  0  0  0  0  0  0
   16.8721   -9.0841   12.2282 C   0  0  0  0  0  0  0  0  0  0  0  0
   17.1654   -8.8583   13.5696 C   0  0  0  0  0  0  0  0  0  0  0  0
   17.5450   -9.9297   14.3712 C   0  0  0  0  0  0  0  0  0  0  0  0
   17.8328   -9.7239   15.6734 O   0  0  0  0  0  0  0  0  0  0  0  0
   16.9310   -9.1939   16.6426 C   0  0  0  0  0  0  0  0  0  0  0  0
   15.8178  -10.0078   16.7536 F   0  0  0  0  0  0  0  0  0  0  0  0
   16.5461   -7.9138   16.2863 F   0  0  0  0  0  0  0  0  0  0  0  0
   17.5687   -9.1424   17.8671 F   0  0  0  0  0  0  0  0  0  0  0  0
   17.6358  -11.2191   13.8553 C   0  0  0  0  0  0  0  0  0  0  0  0
   17.3404  -11.4357   12.5134 C   0  0  0  0  0  0  0  0  0  0  0  0
   17.0148  -10.2295    7.9767 N   0  0  0  0  0  0  0  0  0  0  0  0
   17.6737   -9.6470    6.9636 C   0  0  0  0  0  0  0  0  0  0  0  0
   18.6824   -8.8002    7.2187 N   0  0  0  0  0  0  0  0  0  0  0  0
   20.4134   -6.5595    7.8716 C   0  0  0  0  0  0  0  0  0  0  0  0
   23.1731   -3.1827    6.5901 H   0  0  0  0  0  0  0  0  0  0  0  0
   23.7268   -4.2237    7.8589 H   0  0  0  0  0  0  0  0  0  0  0  0
   22.9886   -5.2147    9.4884 H   0  0  0  0  0  0  0  0  0  0  0  0
   22.5059   -7.0125   10.9892 H   0  0  0  0  0  0  0  0  0  0  0  0
   20.7123   -8.5270   10.5356 H   0  0  0  0  0  0  0  0  0  0  0  0
   18.6434   -8.9136   10.4812 H   0  0  0  0  0  0  0  0  0  0  0  0
   15.9073  -11.2203   10.0957 H   0  0  0  0  0  0  0  0  0  0  0  0
   16.5985   -8.3223   11.6410 H   0  0  0  0  0  0  0  0  0  0  0  0
   17.1040   -7.9366   13.9527 H   0  0  0  0  0  0  0  0  0  0  0  0
   17.9101  -11.9808   14.4423 H   0  0  0  0  0  0  0  0  0  0  0  0
   17.4018  -12.3574   12.1304 H   0  0  0  0  0  0  0  0  0  0  0  0
   17.4129   -9.8440    6.0185 H   0  0  0  0  0  0  0  0  0  0  0  0
   19.8601   -6.4396    7.0473 H   0  0  0  0  0  0  0  0  0  0  0  0
  1  2  1  0  0  0  0
  2  3  2  0  0  0  0
  2  4  1  0  0  0  0
  4  5  2  0  0  0  0
  5  6  1  0  0  0  0
  6  7  2  0  0  0  0
  7  8  1  0  0  0  0
  8  9  1  0  0  0  0
  9 10  2  0  0  0  0
 10 11  1  0  0  0  0
 11 12  1  0  0  0  0
 12 13  1  0  0  0  0
 13 14  2  0  0  0  0
 14 15  1  0  0  0  0
 15 16  2  0  0  0  0
 16 17  1  0  0  0  0
 17 18  1  0  0  0  0
 18 19  1  0  0  0  0
 18 20  1  0  0  0  0
 18 21  1  0  0  0  0
 16 22  1  0  0  0  0
 22 23  2  0  0  0  0
 11 24  2  0  0  0  0
 24 25  1  0  0  0  0
 25 26  2  0  0  0  0
  8 27  2  0  0  0  0
 27  4  1  0  0  0  0
 26  9  1  0  0  0  0
 23 13  1  0  0  0  0
  1 28  1  0  0  0  0
  1 29  1  0  0  0  0
  5 30  1  0  0  0  0
  6 31  1  0  0  0  0
  7 32  1  0  0  0  0
 10 33  1  0  0  0  0
 12 34  1  0  0  0  0
 14 35  1  0  0  0  0
 15 36  1  0  0  0  0
 22 37  1  0  0  0  0
 23 38  1  0  0  0  0
 25 39  1  0  0  0  0
 27 40  1  0  0  0  0
M  END
>  <docking-score>
-30.52

$$$$
3K5V_STI_1
foFlexX   03192110193D 1   1.00000     0.00000     0
FlexX 4.5.0 fol007
 70 74  0  0  0  0            999 V2000
   13.6240   -7.9344   17.5253 C   0  0  0  0  0  0  0  0  0  0  0  0
   14.2093   -7.3045   18.7788 C   0  0  0  0  0  0  0  0  0  0  0  0
   13.5417   -6.2335   19.3636 C   0  0  0  0  0  0  0  0  0  0  0  0
   14.0540   -5.6376   20.5116 C   0  0  0  0  0  0  0  0  0  0  0  0
   15.2346   -6.1239   21.0636 C   0  0  0  0  0  0  0  0  0  0  0  0
   15.7588   -5.5313   22.2186 N   0  0  0  0  0  0  0  0  0  0  0  0
   15.1441   -4.4218   22.8958 C   0  0  0  0  0  0  0  0  0  0  0  0
   14.4671   -3.5854   22.2370 O   0  0  0  0  0  0  0  0  0  0  0  0
   15.3373   -4.2186   24.3524 C   0  0  0  0  0  0  0  0  0  0  0  0
   14.7681   -3.1081   24.9676 C   0  0  0  0  0  0  0  0  0  0  0  0
   14.9397   -2.9050   26.3333 C   0  0  0  0  0  0  0  0  0  0  0  0
   15.6841   -3.8242   27.0666 C   0  0  0  0  0  0  0  0  0  0  0  0
   15.8806   -3.6145   28.5594 C   0  0  0  0  0  0  0  0  0  0  0  0
   14.8113   -4.2612   29.3572 N   0  3  0  0  0  0  0  0  0  0  0  0
   15.4077   -5.2566   30.2598 C   0  0  0  0  0  0  0  0  0  0  0  0
   14.3214   -6.0413   30.9815 C   0  0  0  0  0  0  0  0  0  0  0  0
   13.3575   -6.6360   30.0398 N   0  3  0  0  0  0  0  0  0  0  0  0
   13.2880   -8.0950   30.2102 C   0  0  0  0  0  0  0  0  0  0  0  0
   13.6240   -6.3181   28.6278 C   0  0  0  0  0  0  0  0  0  0  0  0
   13.8084   -4.8227   28.4333 C   0  0  0  0  0  0  0  0  0  0  0  0
   16.2552   -4.9356   26.4556 C   0  0  0  0  0  0  0  0  0  0  0  0
   16.0807   -5.1343   25.0895 C   0  0  0  0  0  0  0  0  0  0  0  0
   15.9080   -7.1947   20.4846 C   0  0  0  0  0  0  0  0  0  0  0  0
   15.3899   -7.7855   19.3365 C   0  0  0  0  0  0  0  0  0  0  0  0
   16.0725   -8.8906   18.7279 N   0  0  0  0  0  0  0  0  0  0  0  0
   16.5530   -8.8489   17.4128 C   0  0  0  0  0  0  0  0  0  0  0  0
   16.3693   -7.7335   16.6911 N   0  0  0  0  0  0  0  0  0  0  0  0
   16.8077   -7.6371   15.4273 C   0  0  0  0  0  0  0  0  0  0  0  0
   17.4687   -8.7147   14.8469 C   0  0  0  0  0  0  0  0  0  0  0  0
   17.6544   -9.8670   15.6029 C   0  0  0  0  0  0  0  0  0  0  0  0
   18.3431  -10.9966   15.0045 C   0  0  0  0  0  0  0  0  0  0  0  0
   18.8013  -10.9023   13.6947 C   0  0  0  0  0  0  0  0  0  0  0  0
   19.4612  -11.9858   13.1256 C   0  0  0  0  0  0  0  0  0  0  0  0
   19.6422  -13.1341   13.8891 C   0  0  0  0  0  0  0  0  0  0  0  0
   19.1911  -13.2011   15.1505 N   0  0  0  0  0  0  0  0  0  0  0  0
   18.5518  -12.1696   15.7224 C   0  0  0  0  0  0  0  0  0  0  0  0
   17.1895   -9.8955   16.8626 N   0  0  0  0  0  0  0  0  0  0  0  0
   14.2106   -8.6866   17.2251 H   0  0  0  0  0  0  0  0  0  0  0  0
   12.7087   -8.2847   17.7245 H   0  0  0  0  0  0  0  0  0  0  0  0
   13.5675   -7.2465   16.8018 H   0  0  0  0  0  0  0  0  0  0  0  0
   12.6936   -5.8918   18.9588 H   0  0  0  0  0  0  0  0  0  0  0  0
   13.5781   -4.8672   20.9359 H   0  0  0  0  0  0  0  0  0  0  0  0
   16.6089   -5.9006   22.5940 H   0  0  0  0  0  0  0  0  0  0  0  0
   14.2356   -2.4559   24.4282 H   0  0  0  0  0  0  0  0  0  0  0  0
   14.5334   -2.1090   26.7820 H   0  0  0  0  0  0  0  0  0  0  0  0
   15.8771   -2.6330   28.7507 H   0  0  0  0  0  0  0  0  0  0  0  0
   16.7624   -4.0031   28.8266 H   0  0  0  0  0  0  0  0  0  0  0  0
   14.3669   -3.5593   29.9139 H   0  0  0  0  0  0  0  0  0  0  0  0
   15.9788   -4.7886   30.9343 H   0  0  0  0  0  0  0  0  0  0  0  0
   15.9709   -5.8881   29.7270 H   0  0  0  0  0  0  0  0  0  0  0  0
   14.7492   -6.7732   31.5119 H   0  0  0  0  0  0  0  0  0  0  0  0
   13.8325   -5.4246   31.5985 H   0  0  0  0  0  0  0  0  0  0  0  0
   12.4556   -6.2665   30.2634 H   0  0  0  0  0  0  0  0  0  0  0  0
   12.9985   -8.3082   31.1434 H   0  0  0  0  0  0  0  0  0  0  0  0
   12.6287   -8.4753   29.5616 H   0  0  0  0  0  0  0  0  0  0  0  0
   14.1894   -8.4937   30.0416 H   0  0  0  0  0  0  0  0  0  0  0  0
   12.8529   -6.6279   28.0715 H   0  0  0  0  0  0  0  0  0  0  0  0
   14.4559   -6.7910   28.3372 H   0  0  0  0  0  0  0  0  0  0  0  0
   14.1061   -4.6543   27.4936 H   0  0  0  0  0  0  0  0  0  0  0  0
   12.9328   -4.3667   28.5924 H   0  0  0  0  0  0  0  0  0  0  0  0
   16.7880   -5.5879   26.9948 H   0  0  0  0  0  0  0  0  0  0  0  0
   16.4870   -5.9302   24.6407 H   0  0  0  0  0  0  0  0  0  0  0  0
   16.7560   -7.5364   20.8897 H   0  0  0  0  0  0  0  0  0  0  0  0
   16.2108   -9.7237   19.2635 H   0  0  0  0  0  0  0  0  0  0  0  0
   16.6605   -6.7965   14.9060 H   0  0  0  0  0  0  0  0  0  0  0  0
   17.8033   -8.6618   13.9060 H   0  0  0  0  0  0  0  0  0  0  0  0
   18.6576  -10.0645   13.1680 H   0  0  0  0  0  0  0  0  0  0  0  0
   19.7991  -11.9403   12.1855 H   0  0  0  0  0  0  0  0  0  0  0  0
   20.1152  -13.9207   13.4922 H   0  0  0  0  0  0  0  0  0  0  0  0
   18.2253  -12.2440   16.6647 H   0  0  0  0  0  0  0  0  0  0  0  0
  1  2  1  0  0  0  0
  2  3  2  0  0  0  0
  3  4  1  0  0  0  0
  4  5  2  0  0  0  0
  5  6  1  0  0  0  0
  6  7  1  0  0  0  0
  7  8  2  0  0  0  0
  7  9  1  0  0  0  0
  9 10  2  0  0  0  0
 10 11  1  0  0  0  0
 11 12  2  0  0  0  0
 12 13  1  0  0  0  0
 13 14  1  0  0  0  0
 14 15  1  0  0  0  0
 15 16  1  0  0  0  0
 16 17  1  0  0  0  0
 17 18  1  0  0  0  0
 17 19  1  0  0  0  0
 19 20  1  0  0  0  0
 12 21  1  0  0  0  0
 21 22  2  0  0  0  0
  5 23  1  0  0  0  0
 23 24  2  0  0  0  0
 24 25  1  0  0  0  0
 25 26  1  0  0  0  0
 26 27  2  0  0  0  0
 27 28  1  0  0  0  0
 28 29  2  0  0  0  0
 29 30  1  0  0  0  0
 30 31  1  0  0  0  0
 31 32  2  0  0  0  0
 32 33  1  0  0  0  0
 33 34  2  0  0  0  0
 34 35  1  0  0  0  0
 35 36  2  0  0  0  0
 30 37  2  0  0  0  0
 24  2  1  0  0  0  0
 37 26  1  0  0  0  0
 22  9  1  0  0  0  0
 36 31  1  0  0  0  0
 20 14  1  0  0  0  0
  1 38  1  0  0  0  0
  1 39  1  0  0  0  0
  1 40  1  0  0  0  0
  3 41  1  0  0  0  0
  4 42  1  0  0  0  0
  6 43  1  0  0  0  0
 10 44  1  0  0  0  0
 11 45  1  0  0  0  0
 13 46  1  0  0  0  0
 13 47  1  0  0  0  0
 14 48  1  0  0  0  0
 15 49  1  0  0  0  0
 15 50  1  0  0  0  0
 16 51  1  0  0  0  0
 16 52  1  0  0  0  0
 17 53  1  0  0  0  0
 18 54  1  0  0  0  0
 18 55  1  0  0  0  0
 18 56  1  0  0  0  0
 19 57  1  0  0  0  0
 19 58  1  0  0  0  0
 20 59  1  0  0  0  0
 20 60  1  0  0  0  0
 21 61  1  0  0  0  0
 22 62  1  0  0  0  0
 23 63  1  0  0  0  0
 25 64  1  0  0  0  0
 28 65  1  0  0  0  0
 29 66  1  0  0  0  0
 32 67  1  0  0  0  0
 33 68  1  0  0  0  0
 34 69  1  0  0  0  0
 36 70  1  0  0  0  0
M  CHG  2  14   1  17   1
M  END
>  <docking-score>
-18.37

$$$$
3K5V_STI_2
foFlexX   03192110193D 1   1.00000     0.00000     0
FlexX 4.5.0 fol007
 70 74  0  0  0  0            999 V2000
   13.6240   -7.9344   17.5253 C   0  0  0  0  0  0  0  0  0  0  0  0
   14.2093   -7.3045   18.7788 C   0  0  0  0  0  0  0  0  0  0  0  0
   13.5417   -6.2335   19.3636 C   0  0  0  0  0  0  0  0  0  0  0  0
   14.0540   -5.6376   20.5116 C   0  0  0  0  0  0  0  0  0  0  0  0
   15.2346   -6.1239   21.0636 C   0  0  0  0  0  0  0  0  0  0  0  0
   15.7588   -5.5313   22.2186 N   0  0  0  0  0  0  0  0  0  0  0  0
   15.1441   -4.4218   22.8958 C   0  0  0  0  0  0  0  0  0  0  0  0
   14.4671   -3.5854   22.2370 O   0  0  0  0  0  0  0  0  0  0  0  0
   15.3373   -4.2186   24.3524 C   0  0  0  0  0  0  0  0  0  0  0  0
   14.7681   -3.1081   24.9676 C   0  0  0  0  0  0  0  0  0  0  0  0
   14.9397   -2.9050   26.3333 C   0  0  0  0  0  0  0  0  0  0  0  0
   15.6841   -3.8242   27.0666 C   0  0  0  0  0  0  0  0  0  0  0  0
   15.8806   -3.6145   28.5594 C   0  0  0  0  0  0  0  0  0  0  0  0
   14.8113   -4.2612   29.3572 N   0  3  0  0  0  0  0  0  0  0  0  0
   15.1865   -5.6452   29.6998 C   0  0  0  0  0  0  0  0  0  0  0  0
   14.1839   -6.6710   29.1862 C   0  0  0  0  0  0  0  0  0  0  0  0
   12.8387   -6.3145   29.6622 N   0  3  0  0  0  0  0  0  0  0  0  0
   11.8591   -7.2408   29.0781 C   0  0  0  0  0  0  0  0  0  0  0  0
   12.4676   -4.9190   29.3738 C   0  0  0  0  0  0  0  0  0  0  0  0
   13.5506   -4.1766   28.6049 C   0  0  0  0  0  0  0  0  0  0  0  0
   16.2552   -4.9356   26.4556 C   0  0  0  0  0  0  0  0  0  0  0  0
   16.0807   -5.1343   25.0895 C   0  0  0  0  0  0  0  0  0  0  0  0
   15.9080   -7.1947   20.4846 C   0  0  0  0  0  0  0  0  0  0  0  0
   15.3899   -7.7855   19.3365 C   0  0  0  0  0  0  0  0  0  0  0  0
   16.0725   -8.8906   18.7279 N   0  0  0  0  0  0  0  0  0  0  0  0
   16.5530   -8.8489   17.4128 C   0  0  0  0  0  0  0  0  0  0  0  0
   16.3693   -7.7335   16.6911 N   0  0  0  0  0  0  0  0  0  0  0  0
   16.8077   -7.6371   15.4273 C   0  0  0  0  0  0  0  0  0  0  0  0
   17.4687   -8.7147   14.8469 C   0  0  0  0  0  0  0  0  0  0  0  0
   17.6544   -9.8670   15.6029 C   0  0  0  0  0  0  0  0  0  0  0  0
   18.3431  -10.9966   15.0045 C   0  0  0  0  0  0  0  0  0  0  0  0
   18.8013  -10.9023   13.6947 C   0  0  0  0  0  0  0  0  0  0  0  0
   19.4612  -11.9858   13.1256 C   0  0  0  0  0  0  0  0  0  0  0  0
   19.6422  -13.1341   13.8891 C   0  0  0  0  0  0  0  0  0  0  0  0
   19.1911  -13.2011   15.1505 N   0  0  0  0  0  0  0  0  0  0  0  0
   18.5518  -12.1696   15.7224 C   0  0  0  0  0  0  0  0  0  0  0  0
   17.1895   -9.8955   16.8626 N   0  0  0  0  0  0  0  0  0  0  0  0
   14.2106   -8.6866   17.2251 H   0  0  0  0  0  0  0  0  0  0  0  0
   12.7087   -8.2847   17.7245 H   0  0  0  0  0  0  0  0  0  0  0  0
   13.5675   -7.2465   16.8018 H   0  0  0  0  0  0  0  0  0  0  0  0
   12.6936   -5.8918   18.9588 H   0  0  0  0  0  0  0  0  0  0  0  0
   13.5781   -4.8672   20.9359 H   0  0  0  0  0  0  0  0  0  0  0  0
   16.6089   -5.9006   22.5940 H   0  0  0  0  0  0  0  0  0  0  0  0
   14.2356   -2.4559   24.4282 H   0  0  0  0  0  0  0  0  0  0  0  0
   14.5334   -2.1090   26.7820 H   0  0  0  0  0  0  0  0  0  0  0  0
   15.8771   -2.6330   28.7507 H   0  0  0  0  0  0  0  0  0  0  0  0
   16.7624   -4.0031   28.8266 H   0  0  0  0  0  0  0  0  0  0  0  0
   14.7023   -3.7474   30.2082 H   0  0  0  0  0  0  0  0  0  0  0  0
   15.2435   -5.7241   30.6951 H   0  0  0  0  0  0  0  0  0  0  0  0
   16.0807   -5.8429   29.2981 H   0  0  0  0  0  0  0  0  0  0  0  0
   14.1940   -6.6767   28.1863 H   0  0  0  0  0  0  0  0  0  0  0  0
   14.4296   -7.5784   29.5273 H   0  0  0  0  0  0  0  0  0  0  0  0
   12.8224   -6.4370   30.6545 H   0  0  0  0  0  0  0  0  0  0  0  0
   12.0771   -8.1761   29.3570 H   0  0  0  0  0  0  0  0  0  0  0  0
   10.9424   -7.0024   29.3989 H   0  0  0  0  0  0  0  0  0  0  0  0
   11.8910   -7.1744   28.0808 H   0  0  0  0  0  0  0  0  0  0  0  0
   12.3057   -4.4446   30.2390 H   0  0  0  0  0  0  0  0  0  0  0  0
   11.6285   -4.9160   28.8298 H   0  0  0  0  0  0  0  0  0  0  0  0
   13.6687   -4.5938   27.7039 H   0  0  0  0  0  0  0  0  0  0  0  0
   13.2880   -3.2178   28.4965 H   0  0  0  0  0  0  0  0  0  0  0  0
   16.7880   -5.5879   26.9948 H   0  0  0  0  0  0  0  0  0  0  0  0
   16.4870   -5.9302   24.6407 H   0  0  0  0  0  0  0  0  0  0  0  0
   16.7560   -7.5364   20.8897 H   0  0  0  0  0  0  0  0  0  0  0  0
   16.2108   -9.7237   19.2635 H   0  0  0  0  0  0  0  0  0  0  0  0
   16.6605   -6.7965   14.9060 H   0  0  0  0  0  0  0  0  0  0  0  0
   17.8033   -8.6618   13.9060 H   0  0  0  0  0  0  0  0  0  0  0  0
   18.6576  -10.0645   13.1680 H   0  0  0  0  0  0  0  0  0  0  0  0
   19.7991  -11.9403   12.1855 H   0  0  0  0  0  0  0  0  0  0  0  0
   20.1152  -13.9207   13.4922 H   0  0  0  0  0  0  0  0  0  0  0  0
   18.2253  -12.2440   16.6647 H   0  0  0  0  0  0  0  0  0  0  0  0
  1  2  1  0  0  0  0
  2  3  2  0  0  0  0
  3  4  1  0  0  0  0
  4  5  2  0  0  0  0
  5  6  1  0  0  0  0
  6  7  1  0  0  0  0
  7  8  2  0  0  0  0
  7  9  1  0  0  0  0
  9 10  2  0  0  0  0
 10 11  1  0  0  0  0
 11 12  2  0  0  0  0
 12 13  1  0  0  0  0
 13 14  1  0  0  0  0
 14 15  1  0  0  0  0
 15 16  1  0  0  0  0
 16 17  1  0  0  0  0
 17 18  1  0  0  0  0
 17 19  1  0  0  0  0
 19 20  1  0  0  0  0
 12 21  1  0  0  0  0
 21 22  2  0  0  0  0
  5 23  1  0  0  0  0
 23 24  2  0  0  0  0
 24 25  1  0  0  0  0
 25 26  1  0  0  0  0
 26 27  2  0  0  0  0
 27 28  1  0  0  0  0
 28 29  2  0  0  0  0
 29 30  1  0  0  0  0
 30 31  1  0  0  0  0
 31 32  2  0  0  0  0
 32 33  1  0  0  0  0
 33 34  2  0  0  0  0
 34 35  1  0  0  0  0
 35 36  2  0  0  0  0
 30 37  2  0  0  0  0
 24  2  1  0  0  0  0
 37 26  1  0  0  0  0
 22  9  1  0  0  0  0
 36 31  1  0  0  0  0
 20 14  1  0  0  0  0
  1 38  1  0  0  0  0
  1 39  1  0  0  0  0
  1 40  1  0  0  0  0
  3 41  1  0  0  0  0
  4 42  1  0  0  0  0
  6 43  1  0  0  0  0
 10 44  1  0  0  0  0
 11 45  1  0  0  0  0
 13 46  1  0  0  0  0
 13 47  1  0  0  0  0
 14 48  1  0  0  0  0
 15 49  1  0  0  0  0
 15 50  1  0  0  0  0
 16 51  1  0  0  0  0
 16 52  1  0  0  0  0
 17 53  1  0  0  0  0
 18 54  1  0  0  0  0
 18 55  1  0  0  0  0
 18 56  1  0  0  0  0
 19 57  1  0  0  0  0
 19 58  1  0  0  0  0
 20 59  1  0  0  0  0
 20 60  1  0  0  0  0
 21 61  1  0  0  0  0
 22 62  1  0  0  0  0
 23 63  1  0  0  0  0
 25 64  1  0  0  0  0
 28 65  1  0  0  0  0
 29 66  1  0  0  0  0
 32 67  1  0  0  0  0
 33 68  1  0  0  0  0
 34 69  1  0  0  0  0
 36 70  1  0  0  0  0
M  CHG  2  14   1  17   1
M  END
>  <docking-score>
-18.24

$$$$
3K5V_STI_3
foFlexX   03192110193D 1   1.00000     0.00000     0
FlexX 4.5.0 fol007
 70 74  0  0  0  0            999 V2000
   13.6240   -7.9344   17.5253 C   0  0  0  0  0  0  0  0  0  0  0  0
   14.2093   -7.3045   18.7788 C   0  0  0  0  0  0  0  0  0  0  0  0
   13.5417   -6.2335   19.3636 C   0  0  0  0  0  0  0  0  0  0  0  0
   14.0540   -5.6376   20.5116 C   0  0  0  0  0  0  0  0  0  0  0  0
   15.2346   -6.1239   21.0636 C   0  0  0  0  0  0  0  0  0  0  0  0
   15.7588   -5.5313   22.2186 N   0  0  0  0  0  0  0  0  0  0  0  0
   15.1441   -4.4218   22.8958 C   0  0  0  0  0  0  0  0  0  0  0  0
   14.4671   -3.5854   22.2370 O   0  0  0  0  0  0  0  0  0  0  0  0
   15.3373   -4.2186   24.3524 C   0  0  0  0  0  0  0  0  0  0  0  0
   14.7681   -3.1081   24.9676 C   0  0  0  0  0  0  0  0  0  0  0  0
   14.9397   -2.9050   26.3333 C   0  0  0  0  0  0  0  0  0  0  0  0
   15.6841   -3.8242   27.0666 C   0  0  0  0  0  0  0  0  0  0  0  0
   15.8806   -3.6145   28.5594 C   0  0  0  0  0  0  0  0  0  0  0  0
   14.8113   -4.2612   29.3572 N   0  3  0  0  0  0  0  0  0  0  0  0
   13.5655   -4.2801   28.5701 C   0  0  0  0  0  0  0  0  0  0  0  0
   12.4886   -5.0428   29.3282 C   0  0  0  0  0  0  0  0  0  0  0  0
   12.9190   -6.4006   29.7066 N   0  3  0  0  0  0  0  0  0  0  0  0
   12.0098   -7.4114   29.1438 C   0  0  0  0  0  0  0  0  0  0  0  0
   14.2989   -6.6920   29.2843 C   0  0  0  0  0  0  0  0  0  0  0  0
   15.2707   -5.6086   29.7306 C   0  0  0  0  0  0  0  0  0  0  0  0
   16.2552   -4.9356   26.4556 C   0  0  0  0  0  0  0  0  0  0  0  0
   16.0807   -5.1343   25.0895 C   0  0  0  0  0  0  0  0  0  0  0  0
   15.9080   -7.1947   20.4846 C   0  0  0  0  0  0  0  0  0  0  0  0
   15.3899   -7.7855   19.3365 C   0  0  0  0  0  0  0  0  0  0  0  0
   16.0725   -8.8906   18.7279 N   0  0  0  0  0  0  0  0  0  0  0  0
   16.5530   -8.8489   17.4128 C   0  0  0  0  0  0  0  0  0  0  0  0
   16.3693   -7.7335   16.6911 N   0  0  0  0  0  0  0  0  0  0  0  0
   16.8077   -7.6371   15.4273 C   0  0  0  0  0  0  0  0  0  0  0  0
   17.4687   -8.7147   14.8469 C   0  0  0  0  0  0  0  0  0  0  0  0
   17.6544   -9.8670   15.6029 C   0  0  0  0  0  0  0  0  0  0  0  0
   18.3431  -10.9966   15.0045 C   0  0  0  0  0  0  0  0  0  0  0  0
   18.8013  -10.9023   13.6947 C   0  0  0  0  0  0  0  0  0  0  0  0
   19.4612  -11.9858   13.1256 C   0  0  0  0  0  0  0  0  0  0  0  0
   19.6422  -13.1341   13.8891 C   0  0  0  0  0  0  0  0  0  0  0  0
   19.1911  -13.2011   15.1505 N   0  0  0  0  0  0  0  0  0  0  0  0
   18.5518  -12.1696   15.7224 C   0  0  0  0  0  0  0  0  0  0  0  0
   17.1895   -9.8955   16.8626 N   0  0  0  0  0  0  0  0  0  0  0  0
   14.2106   -8.6866   17.2251 H   0  0  0  0  0  0  0  0  0  0  0  0
   12.7087   -8.2847   17.7245 H   0  0  0  0  0  0  0  0  0  0  0  0
   13.5675   -7.2465   16.8018 H   0  0  0  0  0  0  0  0  0  0  0  0
   12.6936   -5.8918   18.9588 H   0  0  0  0  0  0  0  0  0  0  0  0
   13.5781   -4.8672   20.9359 H   0  0  0  0  0  0  0  0  0  0  0  0
   16.6089   -5.9006   22.5940 H   0  0  0  0  0  0  0  0  0  0  0  0
   14.2356   -2.4559   24.4282 H   0  0  0  0  0  0  0  0  0  0  0  0
   14.5334   -2.1090   26.7820 H   0  0  0  0  0  0  0  0  0  0  0  0
   15.8771   -2.6330   28.7507 H   0  0  0  0  0  0  0  0  0  0  0  0
   16.7624   -4.0031   28.8266 H   0  0  0  0  0  0  0  0  0  0  0  0
   14.6606   -3.7280   30.1897 H   0  0  0  0  0  0  0  0  0  0  0  0
   13.7341   -4.7283   27.6922 H   0  0  0  0  0  0  0  0  0  0  0  0
   13.2585   -3.3416   28.4118 H   0  0  0  0  0  0  0  0  0  0  0  0
   12.2610   -4.5353   30.1593 H   0  0  0  0  0  0  0  0  0  0  0  0
   11.6772   -5.1136   28.7481 H   0  0  0  0  0  0  0  0  0  0  0  0
   12.8797   -6.4705   30.7033 H   0  0  0  0  0  0  0  0  0  0  0  0
   12.0079   -7.3397   28.1464 H   0  0  0  0  0  0  0  0  0  0  0  0
   12.3189   -8.3239   29.4117 H   0  0  0  0  0  0  0  0  0  0  0  0
   11.0846   -7.2577   29.4908 H   0  0  0  0  0  0  0  0  0  0  0  0
   14.3245   -6.7581   28.2868 H   0  0  0  0  0  0  0  0  0  0  0  0
   14.5817   -7.5642   29.6835 H   0  0  0  0  0  0  0  0  0  0  0  0
   15.3666   -5.6520   30.7251 H   0  0  0  0  0  0  0  0  0  0  0  0
   16.1587   -5.7763   29.3024 H   0  0  0  0  0  0  0  0  0  0  0  0
   16.7880   -5.5879   26.9948 H   0  0  0  0  0  0  0  0  0  0  0  0
   16.4870   -5.9302   24.6407 H   0  0  0  0  0  0  0  0  0  0  0  0
   16.7560   -7.5364   20.8897 H   0  0  0  0  0  0  0  0  0  0  0  0
   16.2108   -9.7237   19.2635 H   0  0  0  0  0  0  0  0  0  0  0  0
   16.6605   -6.7965   14.9060 H   0  0  0  0  0  0  0  0  0  0  0  0
   17.8033   -8.6618   13.9060 H   0  0  0  0  0  0  0  0  0  0  0  0
   18.6576  -10.0645   13.1680 H   0  0  0  0  0  0  0  0  0  0  0  0
   19.7991  -11.9403   12.1855 H   0  0  0  0  0  0  0  0  0  0  0  0
   20.1152  -13.9207   13.4922 H   0  0  0  0  0  0  0  0  0  0  0  0
   18.2253  -12.2440   16.6647 H   0  0  0  0  0  0  0  0  0  0  0  0
  1  2  1  0  0  0  0
  2  3  2  0  0  0  0
  3  4  1  0  0  0  0
  4  5  2  0  0  0  0
  5  6  1  0  0  0  0
  6  7  1  0  0  0  0
  7  8  2  0  0  0  0
  7  9  1  0  0  0  0
  9 10  2  0  0  0  0
 10 11  1  0  0  0  0
 11 12  2  0  0  0  0
 12 13  1  0  0  0  0
 13 14  1  0  0  0  0
 14 15  1  0  0  0  0
 15 16  1  0  0  0  0
 16 17  1  0  0  0  0
 17 18  1  0  0  0  0
 17 19  1  0  0  0  0
 19 20  1  0  0  0  0
 12 21  1  0  0  0  0
 21 22  2  0  0  0  0
  5 23  1  0  0  0  0
 23 24  2  0  0  0  0
 24 25  1  0  0  0  0
 25 26  1  0  0  0  0
 26 27  2  0  0  0  0
 27 28  1  0  0  0  0
 28 29  2  0  0  0  0
 29 30  1  0  0  0  0
 30 31  1  0  0  0  0
 31 32  2  0  0  0  0
 32 33  1  0  0  0  0
 33 34  2  0  0  0  0
 34 35  1  0  0  0  0
 35 36  2  0  0  0  0
 30 37  2  0  0  0  0
 24  2  1  0  0  0  0
 37 26  1  0  0  0  0
 22  9  1  0  0  0  0
 36 31  1  0  0  0  0
 20 14  1  0  0  0  0
  1 38  1  0  0  0  0
  1 39  1  0  0  0  0
  1 40  1  0  0  0  0
  3 41  1  0  0  0  0
  4 42  1  0  0  0  0
  6 43  1  0  0  0  0
 10 44  1  0  0  0  0
 11 45  1  0  0  0  0
 13 46  1  0  0  0  0
 13 47  1  0  0  0  0
 14 48  1  0  0  0  0
 15 49  1  0  0  0  0
 15 50  1  0  0  0  0
 16 51  1  0  0  0  0
 16 52  1  0  0  0  0
 17 53  1  0  0  0  0
 18 54  1  0  0  0  0
 18 55  1  0  0  0  0
 18 56  1  0  0  0  0
 19 57  1  0  0  0  0
 19 58  1  0  0  0  0
 20 59  1  0  0  0  0
 20 60  1  0  0  0  0
 21 61  1  0  0  0  0
 22 62  1  0  0  0  0
 23 63  1  0  0  0  0
 25 64  1  0  0  0  0
 28 65  1  0  0  0  0
 29 66  1  0  0  0  0
 32 67  1  0  0  0  0
 33 68  1  0  0  0  0
 34 69  1  0  0  0  0
 36 70  1  0  0  0  0
M  CHG  2  14   1  17   1
M  END
>  <docking-score>
-18.04

$$$$
3KFA_B91_1
foFlexX   03192110193D 1   1.00000     0.00000     0
FlexX 4.5.0 fol007
 66 71  0  0  0  0            999 V2000
   18.4427   -6.9632   24.8985 C   0  0  0  0  0  0  0  0  0  0  0  0
   17.1259   -6.8613   24.1452 C   0  0  0  0  0  0  0  0  0  0  0  0
   16.9653   -7.0657   22.8100 C   0  0  0  0  0  0  0  0  0  0  0  0
   15.6410   -6.8773   22.5583 N   0  0  0  0  0  0  0  0  0  0  0  0
   15.0145   -6.9823   21.3111 C   0  0  0  0  0  0  0  0  0  0  0  0
   15.5302   -7.8608   20.3646 C   0  0  0  0  0  0  0  0  0  0  0  0
   14.9009   -7.9597   19.1278 C   0  0  0  0  0  0  0  0  0  0  0  0
   15.4190   -8.8637   18.1362 N   0  0  0  0  0  0  0  0  0  0  0  0
   15.8799   -8.4463   16.8400 C   0  0  0  0  0  0  0  0  0  0  0  0
   15.3665   -7.4324   16.2916 O   0  0  0  0  0  0  0  0  0  0  0  0
   16.8934   -9.2040   16.1318 C   0  0  0  0  0  0  0  0  0  0  0  0
   17.7527  -10.0372   16.8400 C   0  0  0  0  0  0  0  0  0  0  0  0
   18.7258  -10.7625   16.1608 C   0  0  0  0  0  0  0  0  0  0  0  0
   18.8363  -10.6532   14.7787 C   0  0  0  0  0  0  0  0  0  0  0  0
   19.9112  -11.4616   14.0704 C   0  0  0  0  0  0  0  0  0  0  0  0
   17.9738   -9.8179   14.0756 C   0  0  0  0  0  0  0  0  0  0  0  0
   18.0649   -9.6792   12.6054 C   0  0  0  0  0  0  0  0  0  0  0  0
   17.0438   -9.9907   11.7980 C   0  0  0  0  0  0  0  0  0  0  0  0
   17.1195   -9.8632   10.4063 N   0  0  0  0  0  0  0  0  0  0  0  0
   16.1084  -10.1655    9.5424 C   0  0  0  0  0  0  0  0  0  0  0  0
   16.5390   -9.9251    8.3235 N   0  0  0  0  0  0  0  0  0  0  0  0
   17.8239   -9.4677    8.3979 C   0  0  0  0  0  0  0  0  0  0  0  0
   18.7802   -9.0613    7.4741 C   0  0  0  0  0  0  0  0  0  0  0  0
   18.4801   -9.0753    6.1066 N   0  0  0  0  0  0  0  0  0  0  0  0
   19.3901   -9.0835    4.9466 C   0  0  0  0  0  0  0  0  0  0  0  0
   20.1027   -7.7706    4.7941 C   0  0  0  0  0  0  0  0  0  0  0  0
   18.9568   -8.1135    3.8853 C   0  0  0  0  0  0  0  0  0  0  0  0
   19.9949   -8.6530    7.8737 N   0  0  0  0  0  0  0  0  0  0  0  0
   20.3327   -8.6211    9.1703 C   0  0  0  0  0  0  0  0  0  0  0  0
   19.4317   -9.0080   10.0845 N   0  0  0  0  0  0  0  0  0  0  0  0
   18.2100   -9.4187    9.7142 C   0  0  0  0  0  0  0  0  0  0  0  0
   16.9987   -9.0898   14.7495 C   0  0  0  0  0  0  0  0  0  0  0  0
   13.7757   -7.1979   18.8303 C   0  0  0  0  0  0  0  0  0  0  0  0
   13.2811   -6.3266   19.7948 C   0  0  0  0  0  0  0  0  0  0  0  0
   12.0528   -5.4856   19.4879 C   0  0  0  0  0  0  0  0  0  0  0  0
   12.0929   -4.2881   20.1813 F   0  0  0  0  0  0  0  0  0  0  0  0
   10.9192   -6.1837   19.8603 F   0  0  0  0  0  0  0  0  0  0  0  0
   11.9812   -5.1981   18.1357 F   0  0  0  0  0  0  0  0  0  0  0  0
   13.8910   -6.2091   21.0396 C   0  0  0  0  0  0  0  0  0  0  0  0
   15.0341   -6.5671   23.7386 C   0  0  0  0  0  0  0  0  0  0  0  0
   15.9218   -6.5545   24.7054 N   0  0  0  0  0  0  0  0  0  0  0  0
   18.2883   -6.7703   25.8675 H   0  0  0  0  0  0  0  0  0  0  0  0
   18.8140   -7.8862   24.7974 H   0  0  0  0  0  0  0  0  0  0  0  0
   19.0920   -6.3001   24.5260 H   0  0  0  0  0  0  0  0  0  0  0  0
   17.6755   -7.3055   22.1481 H   0  0  0  0  0  0  0  0  0  0  0  0
   16.3392   -8.4118   20.5693 H   0  0  0  0  0  0  0  0  0  0  0  0
   15.4611   -9.8372   18.3611 H   0  0  0  0  0  0  0  0  0  0  0  0
   17.6713  -10.1144   17.8336 H   0  0  0  0  0  0  0  0  0  0  0  0
   19.3459  -11.3626   16.6661 H   0  0  0  0  0  0  0  0  0  0  0  0
   19.8698  -11.2823   13.0875 H   0  0  0  0  0  0  0  0  0  0  0  0
   20.8105  -11.1986   14.4197 H   0  0  0  0  0  0  0  0  0  0  0  0
   19.7604  -12.4359   14.2381 H   0  0  0  0  0  0  0  0  0  0  0  0
   18.9158   -9.3422   12.2024 H   0  0  0  0  0  0  0  0  0  0  0  0
   16.1945  -10.3274   12.2047 H   0  0  0  0  0  0  0  0  0  0  0  0
   15.2025  -10.5082    9.7912 H   0  0  0  0  0  0  0  0  0  0  0  0
   17.5052   -9.0805    5.8839 H   0  0  0  0  0  0  0  0  0  0  0  0
   19.8516   -9.9311    4.6847 H   0  0  0  0  0  0  0  0  0  0  0  0
   21.0357   -7.7469    4.4352 H   0  0  0  0  0  0  0  0  0  0  0  0
   19.9945   -7.0594    5.4887 H   0  0  0  0  0  0  0  0  0  0  0  0
   18.0857   -7.6305    3.9749 H   0  0  0  0  0  0  0  0  0  0  0  0
   19.1270   -8.3180    2.9214 H   0  0  0  0  0  0  0  0  0  0  0  0
   21.2419   -8.3138    9.4512 H   0  0  0  0  0  0  0  0  0  0  0  0
   16.3787   -8.4894   14.2444 H   0  0  0  0  0  0  0  0  0  0  0  0
   13.3302   -7.2754   17.9384 H   0  0  0  0  0  0  0  0  0  0  0  0
   13.5279   -5.5800   21.7268 H   0  0  0  0  0  0  0  0  0  0  0  0
   14.0587   -6.3776   23.8511 H   0  0  0  0  0  0  0  0  0  0  0  0
  1  2  1  0  0  0  0
  2  3  2  0  0  0  0
  3  4  1  0  0  0  0
  4  5  1  0  0  0  0
  5  6  2  0  0  0  0
  6  7  1  0  0  0  0
  7  8  1  0  0  0  0
  8  9  1  0  0  0  0
  9 10  2  0  0  0  0
  9 11  1  0  0  0  0
 11 12  2  0  0  0  0
 12 13  1  0  0  0  0
 13 14  2  0  0  0  0
 14 15  1  0  0  0  0
 14 16  1  0  0  0  0
 16 17  1  0  0  0  0
 17 18  2  0  0  0  0
 18 19  1  0  0  0  0
 19 20  1  0  0  0  0
 20 21  2  0  0  0  0
 21 22  1  0  0  0  0
 22 23  2  0  0  0  0
 23 24  1  0  0  0  0
 24 25  1  0  0  0  0
 25 26  1  0  0  0  0
 26 27  1  0  0  0  0
 23 28  1  0  0  0  0
 28 29  2  0  0  0  0
 29 30  1  0  0  0  0
 30 31  2  0  0  0  0
 16 32  2  0  0  0  0
  7 33  2  0  0  0  0
 33 34  1  0  0  0  0
 34 35  1  0  0  0  0
 35 36  1  0  0  0  0
 35 37  1  0  0  0  0
 35 38  1  0  0  0  0
 34 39  2  0  0  0  0
  4 40  1  0  0  0  0
 40 41  2  0  0  0  0
 41  2  1  0  0  0  0
 39  5  1  0  0  0  0
 32 11  1  0  0  0  0
 31 19  1  0  0  0  0
 31 22  1  0  0  0  0
 27 25  1  0  0  0  0
  1 42  1  0  0  0  0
  1 43  1  0  0  0  0
  1 44  1  0  0  0  0
  3 45  1  0  0  0  0
  6 46  1  0  0  0  0
  8 47  1  0  0  0  0
 12 48  1  0  0  0  0
 13 49  1  0  0  0  0
 15 50  1  0  0  0  0
 15 51  1  0  0  0  0
 15 52  1  0  0  0  0
 17 53  1  0  0  0  0
 18 54  1  0  0  0  0
 20 55  1  0  0  0  0
 24 56  1  0  0  0  0
 25 57  1  0  0  0  0
 26 58  1  0  0  0  0
 26 59  1  0  0  0  0
 27 60  1  0  0  0  0
 27 61  1  0  0  0  0
 29 62  1  0  0  0  0
 32 63  1  0  0  0  0
 33 64  1  0  0  0  0
 39 65  1  0  0  0  0
 40 66  1  0  0  0  0
M  END
>  <docking-score>
-43.31

$$$$
3KFA_B91_2
foFlexX   03192110193D 1   1.00000     0.00000     0
FlexX 4.5.0 fol007
 66 71  0  0  0  0            999 V2000
   15.7468   -6.6861   26.3838 C   0  0  0  0  0  0  0  0  0  0  0  0
   15.9333   -6.9072   24.8911 C   0  0  0  0  0  0  0  0  0  0  0  0
   14.9811   -6.7055   23.9407 C   0  0  0  0  0  0  0  0  0  0  0  0
   15.5654   -7.0187   22.7520 N   0  0  0  0  0  0  0  0  0  0  0  0
   14.9571   -6.9619   21.4927 C   0  0  0  0  0  0  0  0  0  0  0  0
   15.3721   -7.8408   20.4984 C   0  0  0  0  0  0  0  0  0  0  0  0
   14.7615   -7.7782   19.2499 C   0  0  0  0  0  0  0  0  0  0  0  0
   15.1765   -8.6799   18.2090 N   0  0  0  0  0  0  0  0  0  0  0  0
   15.7158   -8.2481   16.9482 C   0  0  0  0  0  0  0  0  0  0  0  0
   15.3526   -7.1429   16.4595 O   0  0  0  0  0  0  0  0  0  0  0  0
   16.6350   -9.0886   16.2057 C   0  0  0  0  0  0  0  0  0  0  0  0
   17.6479   -9.7648   16.8774 C   0  0  0  0  0  0  0  0  0  0  0  0
   18.5305  -10.5696   16.1650 C   0  0  0  0  0  0  0  0  0  0  0  0
   18.3979  -10.6960   14.7864 C   0  0  0  0  0  0  0  0  0  0  0  0
   19.3804  -11.5849   14.0413 C   0  0  0  0  0  0  0  0  0  0  0  0
   17.3827  -10.0170   14.1197 C   0  0  0  0  0  0  0  0  0  0  0  0
   17.2144  -10.1300   12.6542 C   0  0  0  0  0  0  0  0  0  0  0  0
   17.8245   -9.2964   11.8029 C   0  0  0  0  0  0  0  0  0  0  0  0
   17.6721   -9.3946   10.4151 N   0  0  0  0  0  0  0  0  0  0  0  0
   16.5549   -9.8616    9.7875 C   0  0  0  0  0  0  0  0  0  0  0  0
   16.7735   -9.8104    8.4919 N   0  0  0  0  0  0  0  0  0  0  0  0
   18.0274   -9.3110    8.2813 C   0  0  0  0  0  0  0  0  0  0  0  0
   18.8020   -9.0333    7.1607 C   0  0  0  0  0  0  0  0  0  0  0  0
   18.2905   -9.2778    5.8804 N   0  0  0  0  0  0  0  0  0  0  0  0
   19.0047   -9.4487    4.6019 C   0  0  0  0  0  0  0  0  0  0  0  0
   20.1530   -8.4893    4.4780 C   0  0  0  0  0  0  0  0  0  0  0  0
   18.8795   -8.2384    3.7220 C   0  0  0  0  0  0  0  0  0  0  0  0
   20.0407   -8.5315    7.2860 N   0  0  0  0  0  0  0  0  0  0  0  0
   20.5771   -8.2799    8.4882 C   0  0  0  0  0  0  0  0  0  0  0  0
   19.8544   -8.5383    9.5873 N   0  0  0  0  0  0  0  0  0  0  0  0
   18.6136   -9.0379    9.4920 C   0  0  0  0  0  0  0  0  0  0  0  0
   16.4970   -9.2104   14.8270 C   0  0  0  0  0  0  0  0  0  0  0  0
   13.7534   -6.8564   18.9877 C   0  0  0  0  0  0  0  0  0  0  0  0
   13.3579   -5.9884   19.9998 C   0  0  0  0  0  0  0  0  0  0  0  0
   12.2583   -4.9739   19.7319 C   0  0  0  0  0  0  0  0  0  0  0  0
   12.4416   -3.8378   20.5013 F   0  0  0  0  0  0  0  0  0  0  0  0
   11.0348   -5.5365   20.0442 F   0  0  0  0  0  0  0  0  0  0  0  0
   12.2539   -4.5962   18.4002 F   0  0  0  0  0  0  0  0  0  0  0  0
   13.9515   -6.0306   21.2572 C   0  0  0  0  0  0  0  0  0  0  0  0
   16.8492   -7.3984   23.0076 C   0  0  0  0  0  0  0  0  0  0  0  0
   17.0833   -7.3350   24.2976 N   0  0  0  0  0  0  0  0  0  0  0  0
   16.5979   -6.9031   26.8618 H   0  0  0  0  0  0  0  0  0  0  0  0
   15.5046   -5.7305   26.5515 H   0  0  0  0  0  0  0  0  0  0  0  0
   15.0152   -7.2793   26.7198 H   0  0  0  0  0  0  0  0  0  0  0  0
   14.0429   -6.3912   24.0859 H   0  0  0  0  0  0  0  0  0  0  0  0
   16.0967   -8.5063   20.6776 H   0  0  0  0  0  0  0  0  0  0  0  0
   15.0848   -9.6624   18.3714 H   0  0  0  0  0  0  0  0  0  0  0  0
   17.7412   -9.6727   17.8688 H   0  0  0  0  0  0  0  0  0  0  0  0
   19.2603  -11.0574   16.6440 H   0  0  0  0  0  0  0  0  0  0  0  0
   19.1624  -11.5779   13.0654 H   0  0  0  0  0  0  0  0  0  0  0  0
   20.3098  -11.2419   14.1776 H   0  0  0  0  0  0  0  0  0  0  0  0
   19.3154  -12.5196   14.3907 H   0  0  0  0  0  0  0  0  0  0  0  0
   16.6267  -10.8515   12.2882 H   0  0  0  0  0  0  0  0  0  0  0  0
   18.4115   -8.5761   12.1726 H   0  0  0  0  0  0  0  0  0  0  0  0
   15.7197  -10.1847   10.2325 H   0  0  0  0  0  0  0  0  0  0  0  0
   17.2944   -9.3466    5.8250 H   0  0  0  0  0  0  0  0  0  0  0  0
   19.0710  -10.3570    4.1888 H   0  0  0  0  0  0  0  0  0  0  0  0
   20.9807   -8.7609    3.9870 H   0  0  0  0  0  0  0  0  0  0  0  0
   20.4003   -7.9031    5.2495 H   0  0  0  0  0  0  0  0  0  0  0  0
   18.2789   -7.4851    3.9901 H   0  0  0  0  0  0  0  0  0  0  0  0
   18.8593   -8.3429    2.7276 H   0  0  0  0  0  0  0  0  0  0  0  0
   21.5013   -7.9055    8.5640 H   0  0  0  0  0  0  0  0  0  0  0  0
   15.7673   -8.7222   14.3482 H   0  0  0  0  0  0  0  0  0  0  0  0
   13.3205   -6.8184   18.0870 H   0  0  0  0  0  0  0  0  0  0  0  0
   13.6603   -5.4025   21.9788 H   0  0  0  0  0  0  0  0  0  0  0  0
   17.5132   -7.6827   22.3160 H   0  0  0  0  0  0  0  0  0  0  0  0
  1  2  1  0  0  0  0
  2  3  2  0  0  0  0
  3  4  1  0  0  0  0
  4  5  1  0  0  0  0
  5  6  2  0  0  0  0
  6  7  1  0  0  0  0
  7  8  1  0  0  0  0
  8  9  1  0  0  0  0
  9 10  2  0  0  0  0
  9 11  1  0  0  0  0
 11 12  2  0  0  0  0
 12 13  1  0  0  0  0
 13 14  2  0  0  0  0
 14 15  1  0  0  0  0
 14 16  1  0  0  0  0
 16 17  1  0  0  0  0
 17 18  2  0  0  0  0
 18 19  1  0  0  0  0
 19 20  1  0  0  0  0
 20 21  2  0  0  0  0
 21 22  1  0  0  0  0
 22 23  2  0  0  0  0
 23 24  1  0  0  0  0
 24 25  1  0  0  0  0
 25 26  1  0  0  0  0
 26 27  1  0  0  0  0
 23 28  1  0  0  0  0
 28 29  2  0  0  0  0
 29 30  1  0  0  0  0
 30 31  2  0  0  0  0
 16 32  2  0  0  0  0
  7 33  2  0  0  0  0
 33 34  1  0  0  0  0
 34 35  1  0  0  0  0
 35 36  1  0  0  0  0
 35 37  1  0  0  0  0
 35 38  1  0  0  0  0
 34 39  2  0  0  0  0
  4 40  1  0  0  0  0
 40 41  2  0  0  0  0
 41  2  1  0  0  0  0
 39  5  1  0  0  0  0
 32 11  1  0  0  0  0
 31 19  1  0  0  0  0
 31 22  1  0  0  0  0
 27 25  1  0  0  0  0
  1 42  1  0  0  0  0
  1 43  1  0  0  0  0
  1 44  1  0  0  0  0
  3 45  1  0  0  0  0
  6 46  1  0  0  0  0
  8 47  1  0  0  0  0
 12 48  1  0  0  0  0
 13 49  1  0  0  0  0
 15 50  1  0  0  0  0
 15 51  1  0  0  0  0
 15 52  1  0  0  0  0
 17 53  1  0  0  0  0
 18 54  1  0  0  0  0
 20 55  1  0  0  0  0
 24 56  1  0  0  0  0
 25 57  1  0  0  0  0
 26 58  1  0  0  0  0
 26 59  1  0  0  0  0
 27 60  1  0  0  0  0
 27 61  1  0  0  0  0
 29 62  1  0  0  0  0
 32 63  1  0  0  0  0
 33 64  1  0  0  0  0
 39 65  1  0  0  0  0
 40 66  1  0  0  0  0
M  END
>  <docking-score>
-43.23

$$$$
3KFA_B91_3
foFlexX   03192110193D 1   1.00000     0.00000     0
FlexX 4.5.0 fol007
 66 71  0  0  0  0            999 V2000
   18.6623   -7.3902   25.0529 C   0  0  0  0  0  0  0  0  0  0  0  0
   17.3412   -7.1907   24.3272 C   0  0  0  0  0  0  0  0  0  0  0  0
   17.1511   -7.3267   22.9871 C   0  0  0  0  0  0  0  0  0  0  0  0
   15.8342   -7.0631   22.7664 N   0  0  0  0  0  0  0  0  0  0  0  0
   15.1850   -7.0814   21.5265 C   0  0  0  0  0  0  0  0  0  0  0  0
   15.6429   -7.9404   20.5335 C   0  0  0  0  0  0  0  0  0  0  0  0
   14.9914   -7.9528   19.3043 C   0  0  0  0  0  0  0  0  0  0  0  0
   15.4498   -8.8353   18.2651 N   0  0  0  0  0  0  0  0  0  0  0  0
   15.9115   -8.3828   16.9810 C   0  0  0  0  0  0  0  0  0  0  0  0
   15.4407   -7.3216   16.4867 O   0  0  0  0  0  0  0  0  0  0  0  0
   16.8760   -9.1561   16.2230 C   0  0  0  0  0  0  0  0  0  0  0  0
   17.7036  -10.0611   16.8790 C   0  0  0  0  0  0  0  0  0  0  0  0
   18.6297  -10.8015   16.1521 C   0  0  0  0  0  0  0  0  0  0  0  0
   18.7252  -10.6355   14.7745 C   0  0  0  0  0  0  0  0  0  0  0  0
   19.7485  -11.4624   14.0131 C   0  0  0  0  0  0  0  0  0  0  0  0
   17.8946   -9.7286   14.1237 C   0  0  0  0  0  0  0  0  0  0  0  0
   17.9709   -9.5283   12.6597 C   0  0  0  0  0  0  0  0  0  0  0  0
   16.9238   -9.7533   11.8567 C   0  0  0  0  0  0  0  0  0  0  0  0
   16.9853   -9.5671   10.4710 N   0  0  0  0  0  0  0  0  0  0  0  0
   15.9480   -9.7807    9.6117 C   0  0  0  0  0  0  0  0  0  0  0  0
   16.3719   -9.5069    8.3975 N   0  0  0  0  0  0  0  0  0  0  0  0
   17.6788   -9.1162    8.4704 C   0  0  0  0  0  0  0  0  0  0  0  0
   18.6402   -8.7155    7.5495 C   0  0  0  0  0  0  0  0  0  0  0  0
   18.3197   -8.6533    6.1879 N   0  0  0  0  0  0  0  0  0  0  0  0
   18.9859   -7.9136    5.1003 C   0  0  0  0  0  0  0  0  0  0  0  0
   19.2658   -8.7992    3.9206 C   0  0  0  0  0  0  0  0  0  0  0  0
   20.3798   -8.4140    4.8518 C   0  0  0  0  0  0  0  0  0  0  0  0
   19.8793   -8.3850    7.9463 N   0  0  0  0  0  0  0  0  0  0  0  0
   20.2372   -8.4280    9.2371 C   0  0  0  0  0  0  0  0  0  0  0  0
   19.3318   -8.8115   10.1483 N   0  0  0  0  0  0  0  0  0  0  0  0
   18.0861   -9.1452    9.7809 C   0  0  0  0  0  0  0  0  0  0  0  0
   16.9665   -8.9851   14.8455 C   0  0  0  0  0  0  0  0  0  0  0  0
   13.9008   -7.1247   19.0599 C   0  0  0  0  0  0  0  0  0  0  0  0
   13.4639   -6.2747   20.0702 C   0  0  0  0  0  0  0  0  0  0  0  0
   12.2741   -5.3622   19.8215 C   0  0  0  0  0  0  0  0  0  0  0  0
   12.3833   -4.2005   20.5665 F   0  0  0  0  0  0  0  0  0  0  0  0
   11.1131   -6.0205   20.1817 F   0  0  0  0  0  0  0  0  0  0  0  0
   12.1969   -5.0110   18.4848 F   0  0  0  0  0  0  0  0  0  0  0  0
   14.0970   -6.2432   21.3084 C   0  0  0  0  0  0  0  0  0  0  0  0
   15.2606   -6.7774   23.9693 C   0  0  0  0  0  0  0  0  0  0  0  0
   16.1620   -6.8513   24.9206 N   0  0  0  0  0  0  0  0  0  0  0  0
   18.5318   -7.2338   26.0319 H   0  0  0  0  0  0  0  0  0  0  0  0
   18.9862   -8.3246   24.9048 H   0  0  0  0  0  0  0  0  0  0  0  0
   19.3379   -6.7432   24.6992 H   0  0  0  0  0  0  0  0  0  0  0  0
   17.8389   -7.5707   22.3034 H   0  0  0  0  0  0  0  0  0  0  0  0
   16.4267   -8.5386   20.6999 H   0  0  0  0  0  0  0  0  0  0  0  0
   15.4472   -9.8188   18.4459 H   0  0  0  0  0  0  0  0  0  0  0  0
   17.6331  -10.1789   17.8695 H   0  0  0  0  0  0  0  0  0  0  0  0
   19.2269  -11.4531   16.6198 H   0  0  0  0  0  0  0  0  0  0  0  0
   19.7015  -11.2372   13.0400 H   0  0  0  0  0  0  0  0  0  0  0  0
   20.6647  -11.2593   14.3584 H   0  0  0  0  0  0  0  0  0  0  0  0
   19.5523  -12.4347   14.1401 H   0  0  0  0  0  0  0  0  0  0  0  0
   18.8313   -9.2152   12.2577 H   0  0  0  0  0  0  0  0  0  0  0  0
   16.0651  -10.0664   12.2624 H   0  0  0  0  0  0  0  0  0  0  0  0
   15.0301  -10.0900    9.8603 H   0  0  0  0  0  0  0  0  0  0  0  0
   17.5217   -9.1894    5.9127 H   0  0  0  0  0  0  0  0  0  0  0  0
   18.7730   -6.9474    4.9552 H   0  0  0  0  0  0  0  0  0  0  0  0
   19.2356   -8.4230    2.9946 H   0  0  0  0  0  0  0  0  0  0  0  0
   18.9260   -9.7397    3.9095 H   0  0  0  0  0  0  0  0  0  0  0  0
   20.7815   -9.0980    5.4608 H   0  0  0  0  0  0  0  0  0  0  0  0
   21.0911   -7.7813    4.5458 H   0  0  0  0  0  0  0  0  0  0  0  0
   21.1645   -8.1780    9.5160 H   0  0  0  0  0  0  0  0  0  0  0  0
   16.3695   -8.3331   14.3781 H   0  0  0  0  0  0  0  0  0  0  0  0
   13.4390   -7.1403   18.1730 H   0  0  0  0  0  0  0  0  0  0  0  0
   13.7755   -5.6288   22.0289 H   0  0  0  0  0  0  0  0  0  0  0  0
   14.2975   -6.5460   24.1065 H   0  0  0  0  0  0  0  0  0  0  0  0
  1  2  1  0  0  0  0
  2  3  2  0  0  0  0
  3  4  1  0  0  0  0
  4  5  1  0  0  0  0
  5  6  2  0  0  0  0
  6  7  1  0  0  0  0
  7  8  1  0  0  0  0
  8  9  1  0  0  0  0
  9 10  2  0  0  0  0
  9 11  1  0  0  0  0
 11 12  2  0  0  0  0
 12 13  1  0  0  0  0
 13 14  2  0  0  0  0
 14 15  1  0  0  0  0
 14 16  1  0  0  0  0
 16 17  1  0  0  0  0
 17 18  2  0  0  0  0
 18 19  1  0  0  0  0
 19 20  1  0  0  0  0
 20 21  2  0  0  0  0
 21 22  1  0  0  0  0
 22 23  2  0  0  0  0
 23 24  1  0  0  0  0
 24 25  1  0  0  0  0
 25 26  1  0  0  0  0
 26 27  1  0  0  0  0
 23 28  1  0  0  0  0
 28 29  2  0  0  0  0
 29 30  1  0  0  0  0
 30 31  2  0  0  0  0
 16 32  2  0  0  0  0
  7 33  2  0  0  0  0
 33 34  1  0  0  0  0
 34 35  1  0  0  0  0
 35 36  1  0  0  0  0
 35 37  1  0  0  0  0
 35 38  1  0  0  0  0
 34 39  2  0  0  0  0
  4 40  1  0  0  0  0
 40 41  2  0  0  0  0
 41  2  1  0  0  0  0
 39  5  1  0  0  0  0
 32 11  1  0  0  0  0
 31 19  1  0  0  0  0
 31 22  1  0  0  0  0
 27 25  1  0  0  0  0
  1 42  1  0  0  0  0
  1 43  1  0  0  0  0
  1 44  1  0  0  0  0
  3 45  1  0  0  0  0
  6 46  1  0  0  0  0
  8 47  1  0  0  0  0
 12 48  1  0  0  0  0
 13 49  1  0  0  0  0
 15 50  1  0  0  0  0
 15 51  1  0  0  0  0
 15 52  1  0  0  0  0
 17 53  1  0  0  0  0
 18 54  1  0  0  0  0
 20 55  1  0  0  0  0
 24 56  1  0  0  0  0
 25 57  1  0  0  0  0
 26 58  1  0  0  0  0
 26 59  1  0  0  0  0
 27 60  1  0  0  0  0
 27 61  1  0  0  0  0
 29 62  1  0  0  0  0
 32 63  1  0  0  0  0
 33 64  1  0  0  0  0
 39 65  1  0  0  0  0
 40 66  1  0  0  0  0
M  END
>  <docking-score>
-42.80

$$$$
