1FPU_PRC_1
foFlexX   03222115273D 1   1.00000     0.00000     0
FlexX 4.5.0 fol007
 47 50  0  0  0  0            999 V2000
   -0.7707   60.3625   31.7893 C   0  0  0  0  0  0  0  0  0  0  0  0
   -2.1930   60.2555   31.2639 C   0  0  0  0  0  0  0  0  0  0  0  0
   -2.5843   59.0827   30.6265 C   0  0  0  0  0  0  0  0  0  0  0  0
   -3.8800   58.9566   30.1360 C   0  0  0  0  0  0  0  0  0  0  0  0
   -4.7734   60.0116   30.2904 C   0  0  0  0  0  0  0  0  0  0  0  0
   -6.0796   59.8950   29.8003 N   0  0  0  0  0  0  0  0  0  0  0  0
   -7.0072   58.8854   30.2331 C   0  0  0  0  0  0  0  0  0  0  0  0
   -6.9326   58.4310   31.4078 O   0  0  0  0  0  0  0  0  0  0  0  0
   -8.0844   58.4065   29.3335 C   0  0  0  0  0  0  0  0  0  0  0  0
   -8.8644   57.3210   29.7181 C   0  0  0  0  0  0  0  0  0  0  0  0
   -9.8740   56.8756   28.8722 C   0  0  0  0  0  0  0  0  0  0  0  0
  -10.0715   57.5337   27.6630 C   0  0  0  0  0  0  0  0  0  0  0  0
   -9.3061   58.5784   27.3141 N   0  0  0  0  0  0  0  0  0  0  0  0
   -8.3260   59.0275   28.1125 C   0  0  0  0  0  0  0  0  0  0  0  0
   -4.3896   61.1876   30.9268 C   0  0  0  0  0  0  0  0  0  0  0  0
   -3.0921   61.3067   31.4147 C   0  0  0  0  0  0  0  0  0  0  0  0
   -2.6912   62.4840   32.0576 N   0  0  0  0  0  0  0  0  0  0  0  0
   -3.2493   63.7621   31.7308 C   0  0  0  0  0  0  0  0  0  0  0  0
   -4.4771   63.8146   31.1936 N   0  0  0  0  0  0  0  0  0  0  0  0
   -5.0494   64.9829   30.8677 C   0  0  0  0  0  0  0  0  0  0  0  0
   -4.3590   66.1700   31.0895 C   0  0  0  0  0  0  0  0  0  0  0  0
   -3.0865   66.1055   31.6467 C   0  0  0  0  0  0  0  0  0  0  0  0
   -2.3588   67.3400   31.8813 C   0  0  0  0  0  0  0  0  0  0  0  0
   -0.9692   67.3363   31.8228 C   0  0  0  0  0  0  0  0  0  0  0  0
   -0.2762   68.5207   32.0472 C   0  0  0  0  0  0  0  0  0  0  0  0
   -0.9993   69.6760   32.3241 C   0  0  0  0  0  0  0  0  0  0  0  0
   -2.3395   69.6543   32.3752 N   0  0  0  0  0  0  0  0  0  0  0  0
   -3.0313   68.5248   32.1622 C   0  0  0  0  0  0  0  0  0  0  0  0
   -2.5735   64.9018   31.9492 N   0  0  0  0  0  0  0  0  0  0  0  0
   -0.6404   61.2561   32.2189 H   0  0  0  0  0  0  0  0  0  0  0  0
   -0.6093   59.6418   32.4635 H   0  0  0  0  0  0  0  0  0  0  0  0
   -0.1267   60.2600   31.0312 H   0  0  0  0  0  0  0  0  0  0  0  0
   -1.9342   58.3303   30.5208 H   0  0  0  0  0  0  0  0  0  0  0  0
   -4.1664   58.1157   29.6768 H   0  0  0  0  0  0  0  0  0  0  0  0
   -6.3847   60.5511   29.1100 H   0  0  0  0  0  0  0  0  0  0  0  0
   -8.7008   56.8660   30.5934 H   0  0  0  0  0  0  0  0  0  0  0  0
  -10.4470   56.0970   29.1283 H   0  0  0  0  0  0  0  0  0  0  0  0
  -10.7942   57.2238   27.0452 H   0  0  0  0  0  0  0  0  0  0  0  0
   -7.7692   59.8086   27.8299 H   0  0  0  0  0  0  0  0  0  0  0  0
   -5.0399   61.9399   31.0326 H   0  0  0  0  0  0  0  0  0  0  0  0
   -1.9910   62.4308   32.7696 H   0  0  0  0  0  0  0  0  0  0  0  0
   -5.9658   65.0005   30.4680 H   0  0  0  0  0  0  0  0  0  0  0  0
   -4.7691   67.0509   30.8534 H   0  0  0  0  0  0  0  0  0  0  0  0
   -0.4740   66.4912   31.6217 H   0  0  0  0  0  0  0  0  0  0  0  0
    0.7229   68.5414   32.0101 H   0  0  0  0  0  0  0  0  0  0  0  0
   -0.5135   70.5346   32.4873 H   0  0  0  0  0  0  0  0  0  0  0  0
   -4.0304   68.5346   32.2054 H   0  0  0  0  0  0  0  0  0  0  0  0
  1  2  1  0  0  0  0
  2  3  2  0  0  0  0
  3  4  1  0  0  0  0
  4  5  2  0  0  0  0
  5  6  1  0  0  0  0
  6  7  1  0  0  0  0
  7  8  2  0  0  0  0
  7  9  1  0  0  0  0
  9 10  2  0  0  0  0
 10 11  1  0  0  0  0
 11 12  2  0  0  0  0
 12 13  1  0  0  0  0
 13 14  2  0  0  0  0
  5 15  1  0  0  0  0
 15 16  2  0  0  0  0
 16 17  1  0  0  0  0
 17 18  1  0  0  0  0
 18 19  2  0  0  0  0
 19 20  1  0  0  0  0
 20 21  2  0  0  0  0
 21 22  1  0  0  0  0
 22 23  1  0  0  0  0
 23 24  2  0  0  0  0
 24 25  1  0  0  0  0
 25 26  2  0  0  0  0
 26 27  1  0  0  0  0
 27 28  2  0  0  0  0
 22 29  2  0  0  0  0
 16  2  1  0  0  0  0
 29 18  1  0  0  0  0
 14  9  1  0  0  0  0
 28 23  1  0  0  0  0
  1 30  1  0  0  0  0
  1 31  1  0  0  0  0
  1 32  1  0  0  0  0
  3 33  1  0  0  0  0
  4 34  1  0  0  0  0
  6 35  1  0  0  0  0
 10 36  1  0  0  0  0
 11 37  1  0  0  0  0
 12 38  1  0  0  0  0
 14 39  1  0  0  0  0
 15 40  1  0  0  0  0
 17 41  1  0  0  0  0
 20 42  1  0  0  0  0
 21 43  1  0  0  0  0
 24 44  1  0  0  0  0
 25 45  1  0  0  0  0
 26 46  1  0  0  0  0
 28 47  1  0  0  0  0
M  END
>  <docking-score>
-6.24

$$$$
1FPU_PRC_2
foFlexX   03222115273D 1   1.00000     0.00000     0
FlexX 4.5.0 fol007
 47 50  0  0  0  0            999 V2000
   -7.0988   66.5308   29.5060 C   0  0  0  0  0  0  0  0  0  0  0  0
   -5.8901   66.9476   30.3283 C   0  0  0  0  0  0  0  0  0  0  0  0
   -5.2581   68.1494   30.0269 C   0  0  0  0  0  0  0  0  0  0  0  0
   -4.1500   68.5563   30.7630 C   0  0  0  0  0  0  0  0  0  0  0  0
   -3.6855   67.7511   31.7978 C   0  0  0  0  0  0  0  0  0  0  0  0
   -2.5404   68.1622   32.5651 N   0  0  0  0  0  0  0  0  0  0  0  0
   -1.8201   69.3843   32.3313 C   0  0  0  0  0  0  0  0  0  0  0  0
   -2.4279   70.3891   31.8692 O   0  0  0  0  0  0  0  0  0  0  0  0
   -0.3816   69.4965   32.6736 C   0  0  0  0  0  0  0  0  0  0  0  0
    0.2888   68.3889   33.1818 C   0  0  0  0  0  0  0  0  0  0  0  0
    1.6378   68.4980   33.5007 C   0  0  0  0  0  0  0  0  0  0  0  0
    2.2754   69.7176   33.2999 C   0  0  0  0  0  0  0  0  0  0  0  0
    1.6073   70.7717   32.8085 N   0  0  0  0  0  0  0  0  0  0  0  0
    0.3059   70.6922   32.4928 C   0  0  0  0  0  0  0  0  0  0  0  0
   -4.3122   66.5478   32.1053 C   0  0  0  0  0  0  0  0  0  0  0  0
   -5.4198   66.1472   31.3647 C   0  0  0  0  0  0  0  0  0  0  0  0
   -6.0613   64.9388   31.6625 N   0  0  0  0  0  0  0  0  0  0  0  0
   -5.3848   63.6778   31.5990 C   0  0  0  0  0  0  0  0  0  0  0  0
   -4.0523   63.6493   31.7486 N   0  0  0  0  0  0  0  0  0  0  0  0
   -3.3665   62.4979   31.6983 C   0  0  0  0  0  0  0  0  0  0  0  0
   -4.0471   61.3033   31.4867 C   0  0  0  0  0  0  0  0  0  0  0  0
   -5.4286   61.3428   31.3325 C   0  0  0  0  0  0  0  0  0  0  0  0
   -6.1466   60.1004   31.1109 C   0  0  0  0  0  0  0  0  0  0  0  0
   -7.5284   60.1278   30.9542 C   0  0  0  0  0  0  0  0  0  0  0  0
   -8.2122   58.9360   30.7413 C   0  0  0  0  0  0  0  0  0  0  0  0
   -7.4880   57.7496   30.6917 C   0  0  0  0  0  0  0  0  0  0  0  0
   -6.1556   57.7488   30.8458 N   0  0  0  0  0  0  0  0  0  0  0  0
   -5.4727   58.8850   31.0521 C   0  0  0  0  0  0  0  0  0  0  0  0
   -6.0521   62.5307   31.3939 N   0  0  0  0  0  0  0  0  0  0  0  0
   -7.4414   65.6523   29.8388 H   0  0  0  0  0  0  0  0  0  0  0  0
   -7.8156   67.2227   29.5927 H   0  0  0  0  0  0  0  0  0  0  0  0
   -6.8344   66.4434   28.5456 H   0  0  0  0  0  0  0  0  0  0  0  0
   -5.6003   68.7210   29.2810 H   0  0  0  0  0  0  0  0  0  0  0  0
   -3.6918   69.4194   30.5504 H   0  0  0  0  0  0  0  0  0  0  0  0
   -2.2276   67.5641   33.3030 H   0  0  0  0  0  0  0  0  0  0  0  0
   -0.1941   67.5236   33.3163 H   0  0  0  0  0  0  0  0  0  0  0  0
    2.1397   67.7146   33.8674 H   0  0  0  0  0  0  0  0  0  0  0  0
    3.2454   69.8098   33.5249 H   0  0  0  0  0  0  0  0  0  0  0  0
   -0.1699   71.4923   32.1276 H   0  0  0  0  0  0  0  0  0  0  0  0
   -3.9700   65.9764   32.8513 H   0  0  0  0  0  0  0  0  0  0  0  0
   -7.0251   64.9567   31.9286 H   0  0  0  0  0  0  0  0  0  0  0  0
   -2.3730   62.4981   31.8121 H   0  0  0  0  0  0  0  0  0  0  0  0
   -3.5534   60.4346   31.4463 H   0  0  0  0  0  0  0  0  0  0  0  0
   -8.0245   60.9951   30.9943 H   0  0  0  0  0  0  0  0  0  0  0  0
   -9.2056   58.9319   30.6260 H   0  0  0  0  0  0  0  0  0  0  0  0
   -7.9673   56.8853   30.5391 H   0  0  0  0  0  0  0  0  0  0  0  0
   -4.4793   58.8581   31.1636 H   0  0  0  0  0  0  0  0  0  0  0  0
  1  2  1  0  0  0  0
  2  3  2  0  0  0  0
  3  4  1  0  0  0  0
  4  5  2  0  0  0  0
  5  6  1  0  0  0  0
  6  7  1  0  0  0  0
  7  8  2  0  0  0  0
  7  9  1  0  0  0  0
  9 10  2  0  0  0  0
 10 11  1  0  0  0  0
 11 12  2  0  0  0  0
 12 13  1  0  0  0  0
 13 14  2  0  0  0  0
  5 15  1  0  0  0  0
 15 16  2  0  0  0  0
 16 17  1  0  0  0  0
 17 18  1  0  0  0  0
 18 19  2  0  0  0  0
 19 20  1  0  0  0  0
 20 21  2  0  0  0  0
 21 22  1  0  0  0  0
 22 23  1  0  0  0  0
 23 24  2  0  0  0  0
 24 25  1  0  0  0  0
 25 26  2  0  0  0  0
 26 27  1  0  0  0  0
 27 28  2  0  0  0  0
 22 29  2  0  0  0  0
 16  2  1  0  0  0  0
 29 18  1  0  0  0  0
 14  9  1  0  0  0  0
 28 23  1  0  0  0  0
  1 30  1  0  0  0  0
  1 31  1  0  0  0  0
  1 32  1  0  0  0  0
  3 33  1  0  0  0  0
  4 34  1  0  0  0  0
  6 35  1  0  0  0  0
 10 36  1  0  0  0  0
 11 37  1  0  0  0  0
 12 38  1  0  0  0  0
 14 39  1  0  0  0  0
 15 40  1  0  0  0  0
 17 41  1  0  0  0  0
 20 42  1  0  0  0  0
 21 43  1  0  0  0  0
 24 44  1  0  0  0  0
 25 45  1  0  0  0  0
 26 46  1  0  0  0  0
 28 47  1  0  0  0  0
M  END
>  <docking-score>
-5.66

$$$$
1FPU_PRC_3
foFlexX   03222115273D 1   1.00000     0.00000     0
FlexX 4.5.0 fol007
 47 50  0  0  0  0            999 V2000
   -7.0988   66.5308   29.5060 C   0  0  0  0  0  0  0  0  0  0  0  0
   -5.8901   66.9476   30.3283 C   0  0  0  0  0  0  0  0  0  0  0  0
   -5.2581   68.1494   30.0269 C   0  0  0  0  0  0  0  0  0  0  0  0
   -4.1500   68.5563   30.7630 C   0  0  0  0  0  0  0  0  0  0  0  0
   -3.6855   67.7511   31.7978 C   0  0  0  0  0  0  0  0  0  0  0  0
   -2.5404   68.1622   32.5651 N   0  0  0  0  0  0  0  0  0  0  0  0
   -1.8201   69.3843   32.3313 C   0  0  0  0  0  0  0  0  0  0  0  0
   -2.4279   70.3891   31.8692 O   0  0  0  0  0  0  0  0  0  0  0  0
   -0.3816   69.4965   32.6736 C   0  0  0  0  0  0  0  0  0  0  0  0
    0.2888   68.3889   33.1818 C   0  0  0  0  0  0  0  0  0  0  0  0
    1.6378   68.4980   33.5007 C   0  0  0  0  0  0  0  0  0  0  0  0
    2.2754   69.7176   33.2999 C   0  0  0  0  0  0  0  0  0  0  0  0
    1.6073   70.7717   32.8085 N   0  0  0  0  0  0  0  0  0  0  0  0
    0.3059   70.6922   32.4928 C   0  0  0  0  0  0  0  0  0  0  0  0
   -4.3122   66.5478   32.1053 C   0  0  0  0  0  0  0  0  0  0  0  0
   -5.4198   66.1472   31.3647 C   0  0  0  0  0  0  0  0  0  0  0  0
   -6.0613   64.9388   31.6625 N   0  0  0  0  0  0  0  0  0  0  0  0
   -5.3848   63.6778   31.5990 C   0  0  0  0  0  0  0  0  0  0  0  0
   -4.0523   63.6493   31.7486 N   0  0  0  0  0  0  0  0  0  0  0  0
   -3.3665   62.4979   31.6983 C   0  0  0  0  0  0  0  0  0  0  0  0
   -4.0471   61.3033   31.4867 C   0  0  0  0  0  0  0  0  0  0  0  0
   -5.4286   61.3428   31.3325 C   0  0  0  0  0  0  0  0  0  0  0  0
   -6.1466   60.1004   31.1109 C   0  0  0  0  0  0  0  0  0  0  0  0
   -5.4412   58.9028   31.0589 C   0  0  0  0  0  0  0  0  0  0  0  0
   -6.1326   57.7151   30.8475 C   0  0  0  0  0  0  0  0  0  0  0  0
   -7.5141   57.7642   30.6942 C   0  0  0  0  0  0  0  0  0  0  0  0
   -8.1722   58.9317   30.7482 N   0  0  0  0  0  0  0  0  0  0  0  0
   -7.5284   60.0911   30.9513 C   0  0  0  0  0  0  0  0  0  0  0  0
   -6.0521   62.5307   31.3939 N   0  0  0  0  0  0  0  0  0  0  0  0
   -7.4414   65.6523   29.8388 H   0  0  0  0  0  0  0  0  0  0  0  0
   -7.8156   67.2227   29.5927 H   0  0  0  0  0  0  0  0  0  0  0  0
   -6.8344   66.4434   28.5456 H   0  0  0  0  0  0  0  0  0  0  0  0
   -5.6003   68.7210   29.2810 H   0  0  0  0  0  0  0  0  0  0  0  0
   -3.6918   69.4194   30.5504 H   0  0  0  0  0  0  0  0  0  0  0  0
   -2.2276   67.5641   33.3030 H   0  0  0  0  0  0  0  0  0  0  0  0
   -0.1941   67.5236   33.3163 H   0  0  0  0  0  0  0  0  0  0  0  0
    2.1397   67.7146   33.8674 H   0  0  0  0  0  0  0  0  0  0  0  0
    3.2454   69.8098   33.5249 H   0  0  0  0  0  0  0  0  0  0  0  0
   -0.1699   71.4923   32.1276 H   0  0  0  0  0  0  0  0  0  0  0  0
   -3.9700   65.9764   32.8513 H   0  0  0  0  0  0  0  0  0  0  0  0
   -7.0251   64.9567   31.9286 H   0  0  0  0  0  0  0  0  0  0  0  0
   -2.3730   62.4981   31.8121 H   0  0  0  0  0  0  0  0  0  0  0  0
   -3.5534   60.4346   31.4463 H   0  0  0  0  0  0  0  0  0  0  0  0
   -4.4477   58.8961   31.1723 H   0  0  0  0  0  0  0  0  0  0  0  0
   -5.6459   56.8425   30.8064 H   0  0  0  0  0  0  0  0  0  0  0  0
   -8.0237   56.9175   30.5416 H   0  0  0  0  0  0  0  0  0  0  0  0
   -8.0419   60.9484   30.9879 H   0  0  0  0  0  0  0  0  0  0  0  0
  1  2  1  0  0  0  0
  2  3  2  0  0  0  0
  3  4  1  0  0  0  0
  4  5  2  0  0  0  0
  5  6  1  0  0  0  0
  6  7  1  0  0  0  0
  7  8  2  0  0  0  0
  7  9  1  0  0  0  0
  9 10  2  0  0  0  0
 10 11  1  0  0  0  0
 11 12  2  0  0  0  0
 12 13  1  0  0  0  0
 13 14  2  0  0  0  0
  5 15  1  0  0  0  0
 15 16  2  0  0  0  0
 16 17  1  0  0  0  0
 17 18  1  0  0  0  0
 18 19  2  0  0  0  0
 19 20  1  0  0  0  0
 20 21  2  0  0  0  0
 21 22  1  0  0  0  0
 22 23  1  0  0  0  0
 23 24  2  0  0  0  0
 24 25  1  0  0  0  0
 25 26  2  0  0  0  0
 26 27  1  0  0  0  0
 27 28  2  0  0  0  0
 22 29  2  0  0  0  0
 16  2  1  0  0  0  0
 29 18  1  0  0  0  0
 14  9  1  0  0  0  0
 28 23  1  0  0  0  0
  1 30  1  0  0  0  0
  1 31  1  0  0  0  0
  1 32  1  0  0  0  0
  3 33  1  0  0  0  0
  4 34  1  0  0  0  0
  6 35  1  0  0  0  0
 10 36  1  0  0  0  0
 11 37  1  0  0  0  0
 12 38  1  0  0  0  0
 14 39  1  0  0  0  0
 15 40  1  0  0  0  0
 17 41  1  0  0  0  0
 20 42  1  0  0  0  0
 21 43  1  0  0  0  0
 24 44  1  0  0  0  0
 25 45  1  0  0  0  0
 26 46  1  0  0  0  0
 28 47  1  0  0  0  0
M  END
>  <docking-score>
-5.07

$$$$
6HD6_FYH_1
foFlexX   03222115273D 1   1.00000     0.00000     0
FlexX 4.5.0 fol007
 47 49  0  0  0  0            999 V2000
   -3.1352   66.3051   30.6897 O   0  0  0  0  0  0  0  0  0  0  0  0
   -2.5047   66.5142   31.7624 C   0  0  0  0  0  0  0  0  0  0  0  0
   -1.7137   65.4616   32.3398 N   0  0  0  0  0  0  0  0  0  0  0  0
   -2.0196   64.0632   32.1987 C   0  0  0  0  0  0  0  0  0  0  0  0
   -3.1379   63.6749   31.4677 C   0  0  0  0  0  0  0  0  0  0  0  0
   -3.4416   62.3244   31.3256 C   0  0  0  0  0  0  0  0  0  0  0  0
   -2.6164   61.3766   31.9218 C   0  0  0  0  0  0  0  0  0  0  0  0
   -2.9004   60.0638   31.7922 O   0  0  0  0  0  0  0  0  0  0  0  0
   -2.9814   59.3564   30.5568 C   0  0  0  0  0  0  0  0  0  0  0  0
   -1.7621   59.4381   29.9127 F   0  0  0  0  0  0  0  0  0  0  0  0
   -3.9518   59.9199   29.7474 F   0  0  0  0  0  0  0  0  0  0  0  0
   -3.2751   58.0246   30.7881 F   0  0  0  0  0  0  0  0  0  0  0  0
   -1.4961   61.7558   32.6553 C   0  0  0  0  0  0  0  0  0  0  0  0
   -1.1999   63.1080   32.7918 C   0  0  0  0  0  0  0  0  0  0  0  0
   -2.5475   67.8299   32.3699 C   0  0  0  0  0  0  0  0  0  0  0  0
   -3.7716   68.4590   32.5730 C   0  0  0  0  0  0  0  0  0  0  0  0
   -3.7933   69.7214   33.1573 C   0  0  0  0  0  0  0  0  0  0  0  0
   -2.6144   70.3549   33.5367 C   0  0  0  0  0  0  0  0  0  0  0  0
   -1.4014   69.7071   33.3245 C   0  0  0  0  0  0  0  0  0  0  0  0
   -0.1142   70.3856   33.7332 C   0  0  0  0  0  0  0  0  0  0  0  0
    0.6302   69.5981   34.7269 N   0  3  0  0  0  0  0  0  0  0  0  0
    1.5597   68.6671   34.0708 C   0  0  0  0  0  0  0  0  0  0  0  0
    2.1919   67.7824   35.1348 C   0  0  0  0  0  0  0  0  0  0  0  0
    2.1834   68.4010   36.4175 O   0  0  0  0  0  0  0  0  0  0  0  0
    2.4617   69.7933   36.3422 C   0  0  0  0  0  0  0  0  0  0  0  0
    1.3705   70.5359   35.5854 C   0  0  0  0  0  0  0  0  0  0  0  0
   -1.3565   68.4447   32.7418 C   0  0  0  0  0  0  0  0  0  0  0  0
   -0.9048   65.7161   32.8698 H   0  0  0  0  0  0  0  0  0  0  0  0
   -3.7234   64.3663   31.0444 H   0  0  0  0  0  0  0  0  0  0  0  0
   -4.2436   62.0386   30.8012 H   0  0  0  0  0  0  0  0  0  0  0  0
   -0.9111   61.0644   33.0792 H   0  0  0  0  0  0  0  0  0  0  0  0
   -0.3978   63.3936   33.3163 H   0  0  0  0  0  0  0  0  0  0  0  0
   -4.6235   68.0103   32.3029 H   0  0  0  0  0  0  0  0  0  0  0  0
   -4.6692   70.1801   33.3067 H   0  0  0  0  0  0  0  0  0  0  0  0
   -2.6383   71.2626   33.9557 H   0  0  0  0  0  0  0  0  0  0  0  0
   -0.3305   71.2796   34.1256 H   0  0  0  0  0  0  0  0  0  0  0  0
    0.4585   70.5073   32.9225 H   0  0  0  0  0  0  0  0  0  0  0  0
   -0.0157   69.0788   35.2865 H   0  0  0  0  0  0  0  0  0  0  0  0
    2.2721   69.1823   33.5942 H   0  0  0  0  0  0  0  0  0  0  0  0
    1.0618   68.1008   33.4140 H   0  0  0  0  0  0  0  0  0  0  0  0
    1.6808   66.9245   35.1867 H   0  0  0  0  0  0  0  0  0  0  0  0
    3.1385   67.5912   34.8749 H   0  0  0  0  0  0  0  0  0  0  0  0
    3.3333   69.9261   35.8703 H   0  0  0  0  0  0  0  0  0  0  0  0
    2.5247   70.1634   37.2691 H   0  0  0  0  0  0  0  0  0  0  0  0
    0.7403   70.9554   36.2388 H   0  0  0  0  0  0  0  0  0  0  0  0
    1.7854   71.2475   35.0185 H   0  0  0  0  0  0  0  0  0  0  0  0
   -0.4807   67.9858   32.5925 H   0  0  0  0  0  0  0  0  0  0  0  0
  1  2  2  0  0  0  0
  2  3  1  0  0  0  0
  3  4  1  0  0  0  0
  4  5  2  0  0  0  0
  5  6  1  0  0  0  0
  6  7  2  0  0  0  0
  7  8  1  0  0  0  0
  8  9  1  0  0  0  0
  9 10  1  0  0  0  0
  9 11  1  0  0  0  0
  9 12  1  0  0  0  0
  7 13  1  0  0  0  0
 13 14  2  0  0  0  0
  2 15  1  0  0  0  0
 15 16  2  0  0  0  0
 16 17  1  0  0  0  0
 17 18  2  0  0  0  0
 18 19  1  0  0  0  0
 19 20  1  0  0  0  0
 20 21  1  0  0  0  0
 21 22  1  0  0  0  0
 22 23  1  0  0  0  0
 23 24  1  0  0  0  0
 24 25  1  0  0  0  0
 25 26  1  0  0  0  0
 19 27  2  0  0  0  0
 14  4  1  0  0  0  0
 27 15  1  0  0  0  0
 26 21  1  0  0  0  0
  3 28  1  0  0  0  0
  5 29  1  0  0  0  0
  6 30  1  0  0  0  0
 13 31  1  0  0  0  0
 14 32  1  0  0  0  0
 16 33  1  0  0  0  0
 17 34  1  0  0  0  0
 18 35  1  0  0  0  0
 20 36  1  0  0  0  0
 20 37  1  0  0  0  0
 21 38  1  0  0  0  0
 22 39  1  0  0  0  0
 22 40  1  0  0  0  0
 23 41  1  0  0  0  0
 23 42  1  0  0  0  0
 25 43  1  0  0  0  0
 25 44  1  0  0  0  0
 26 45  1  0  0  0  0
 26 46  1  0  0  0  0
 27 47  1  0  0  0  0
M  CHG  1  21   1
M  END
>  <docking-score>
-8.91

$$$$
6HD6_FYH_2
foFlexX   03222115273D 1   1.00000     0.00000     0
FlexX 4.5.0 fol007
 47 49  0  0  0  0            999 V2000
   -3.1242   66.2886   30.7282 O   0  0  0  0  0  0  0  0  0  0  0  0
   -2.4863   66.5030   31.7954 C   0  0  0  0  0  0  0  0  0  0  0  0
   -1.6819   65.4569   32.3662 N   0  0  0  0  0  0  0  0  0  0  0  0
   -1.9777   64.0561   32.2280 C   0  0  0  0  0  0  0  0  0  0  0  0
   -3.0991   63.6586   31.5066 C   0  0  0  0  0  0  0  0  0  0  0  0
   -3.3931   62.3057   31.3675 C   0  0  0  0  0  0  0  0  0  0  0  0
   -2.5553   61.3647   31.9568 C   0  0  0  0  0  0  0  0  0  0  0  0
   -2.8298   60.0496   31.8298 O   0  0  0  0  0  0  0  0  0  0  0  0
   -2.9157   59.3413   30.5953 C   0  0  0  0  0  0  0  0  0  0  0  0
   -1.7026   59.4326   29.9408 F   0  0  0  0  0  0  0  0  0  0  0  0
   -3.8974   59.8967   29.7941 F   0  0  0  0  0  0  0  0  0  0  0  0
   -3.1967   58.0072   30.8294 F   0  0  0  0  0  0  0  0  0  0  0  0
   -1.4318   61.7531   32.6806 C   0  0  0  0  0  0  0  0  0  0  0  0
   -1.1454   63.1076   32.8143 C   0  0  0  0  0  0  0  0  0  0  0  0
   -2.5345   67.8185   32.4030 C   0  0  0  0  0  0  0  0  0  0  0  0
   -3.7617   68.4377   32.6164 C   0  0  0  0  0  0  0  0  0  0  0  0
   -3.7886   69.7001   33.2006 C   0  0  0  0  0  0  0  0  0  0  0  0
   -2.6116   70.3432   33.5698 C   0  0  0  0  0  0  0  0  0  0  0  0
   -1.3953   69.7051   33.3474 C   0  0  0  0  0  0  0  0  0  0  0  0
   -0.1102   70.3940   33.7449 C   0  0  0  0  0  0  0  0  0  0  0  0
    0.6486   69.6130   34.7320 N   0  3  0  0  0  0  0  0  0  0  0  0
    1.4071   70.5502   35.5733 C   0  0  0  0  0  0  0  0  0  0  0  0
    2.4666   69.7940   36.3595 C   0  0  0  0  0  0  0  0  0  0  0  0
    2.1826   68.4011   36.4141 O   0  0  0  0  0  0  0  0  0  0  0  0
    2.1916   67.7811   35.1333 C   0  0  0  0  0  0  0  0  0  0  0  0
    1.5600   68.6671   34.0719 C   0  0  0  0  0  0  0  0  0  0  0  0
   -1.3453   68.4429   32.7646 C   0  0  0  0  0  0  0  0  0  0  0  0
   -0.8705   65.7181   32.8892 H   0  0  0  0  0  0  0  0  0  0  0  0
   -3.6937   64.3452   31.0882 H   0  0  0  0  0  0  0  0  0  0  0  0
   -4.1973   62.0133   30.8499 H   0  0  0  0  0  0  0  0  0  0  0  0
   -0.8377   61.0665   33.0996 H   0  0  0  0  0  0  0  0  0  0  0  0
   -0.3412   63.3999   33.3318 H   0  0  0  0  0  0  0  0  0  0  0  0
   -4.6123   67.9821   32.3537 H   0  0  0  0  0  0  0  0  0  0  0  0
   -4.6669   70.1518   33.3574 H   0  0  0  0  0  0  0  0  0  0  0  0
   -2.6393   71.2507   33.9888 H   0  0  0  0  0  0  0  0  0  0  0  0
   -0.3304   71.2863   34.1390 H   0  0  0  0  0  0  0  0  0  0  0  0
    0.4546   70.5201   32.9293 H   0  0  0  0  0  0  0  0  0  0  0  0
    0.0086   69.1029   35.3066 H   0  0  0  0  0  0  0  0  0  0  0  0
    0.7835   71.0052   36.2090 H   0  0  0  0  0  0  0  0  0  0  0  0
    1.8492   71.2342   34.9930 H   0  0  0  0  0  0  0  0  0  0  0  0
    3.3544   69.9273   35.9191 H   0  0  0  0  0  0  0  0  0  0  0  0
    2.4990   70.1554   37.2913 H   0  0  0  0  0  0  0  0  0  0  0  0
    1.6798   66.9236   35.1854 H   0  0  0  0  0  0  0  0  0  0  0  0
    3.1379   67.5892   34.8734 H   0  0  0  0  0  0  0  0  0  0  0  0
    2.2737   69.1708   33.5852 H   0  0  0  0  0  0  0  0  0  0  0  0
    1.0485   68.1034   33.4233 H   0  0  0  0  0  0  0  0  0  0  0  0
   -0.4671   67.9910   32.6079 H   0  0  0  0  0  0  0  0  0  0  0  0
  1  2  2  0  0  0  0
  2  3  1  0  0  0  0
  3  4  1  0  0  0  0
  4  5  2  0  0  0  0
  5  6  1  0  0  0  0
  6  7  2  0  0  0  0
  7  8  1  0  0  0  0
  8  9  1  0  0  0  0
  9 10  1  0  0  0  0
  9 11  1  0  0  0  0
  9 12  1  0  0  0  0
  7 13  1  0  0  0  0
 13 14  2  0  0  0  0
  2 15  1  0  0  0  0
 15 16  2  0  0  0  0
 16 17  1  0  0  0  0
 17 18  2  0  0  0  0
 18 19  1  0  0  0  0
 19 20  1  0  0  0  0
 20 21  1  0  0  0  0
 21 22  1  0  0  0  0
 22 23  1  0  0  0  0
 23 24  1  0  0  0  0
 24 25  1  0  0  0  0
 25 26  1  0  0  0  0
 19 27  2  0  0  0  0
 14  4  1  0  0  0  0
 27 15  1  0  0  0  0
 26 21  1  0  0  0  0
  3 28  1  0  0  0  0
  5 29  1  0  0  0  0
  6 30  1  0  0  0  0
 13 31  1  0  0  0  0
 14 32  1  0  0  0  0
 16 33  1  0  0  0  0
 17 34  1  0  0  0  0
 18 35  1  0  0  0  0
 20 36  1  0  0  0  0
 20 37  1  0  0  0  0
 21 38  1  0  0  0  0
 22 39  1  0  0  0  0
 22 40  1  0  0  0  0
 23 41  1  0  0  0  0
 23 42  1  0  0  0  0
 25 43  1  0  0  0  0
 25 44  1  0  0  0  0
 26 45  1  0  0  0  0
 26 46  1  0  0  0  0
 27 47  1  0  0  0  0
M  CHG  1  21   1
M  END
>  <docking-score>
-8.41

$$$$
6HD6_FYH_3
foFlexX   03222115273D 1   1.00000     0.00000     0
FlexX 4.5.0 fol007
 47 49  0  0  0  0            999 V2000
   -3.7261   66.8496   30.9364 O   0  0  0  0  0  0  0  0  0  0  0  0
   -2.7562   66.8971   31.7425 C   0  0  0  0  0  0  0  0  0  0  0  0
   -1.9197   65.7409   31.9185 N   0  0  0  0  0  0  0  0  0  0  0  0
   -2.3846   64.3881   31.7674 C   0  0  0  0  0  0  0  0  0  0  0  0
   -3.4207   64.1127   30.8806 C   0  0  0  0  0  0  0  0  0  0  0  0
   -3.8769   62.8070   30.7278 C   0  0  0  0  0  0  0  0  0  0  0  0
   -3.2859   61.7901   31.4703 C   0  0  0  0  0  0  0  0  0  0  0  0
   -3.7197   60.5198   31.3319 O   0  0  0  0  0  0  0  0  0  0  0  0
   -3.7059   59.7721   30.1178 C   0  0  0  0  0  0  0  0  0  0  0  0
   -2.4031   59.6672   29.6708 F   0  0  0  0  0  0  0  0  0  0  0  0
   -4.4580   60.4170   29.1521 F   0  0  0  0  0  0  0  0  0  0  0  0
   -4.2066   58.5010   30.3347 F   0  0  0  0  0  0  0  0  0  0  0  0
   -2.2496   62.0564   32.3602 C   0  0  0  0  0  0  0  0  0  0  0  0
   -1.7996   63.3644   32.5063 C   0  0  0  0  0  0  0  0  0  0  0  0
   -2.4634   68.1630   32.4580 C   0  0  0  0  0  0  0  0  0  0  0  0
   -3.4844   68.8343   33.1229 C   0  0  0  0  0  0  0  0  0  0  0  0
   -3.1912   70.0203   33.7885 C   0  0  0  0  0  0  0  0  0  0  0  0
   -1.8995   70.5366   33.7957 C   0  0  0  0  0  0  0  0  0  0  0  0
   -0.8936   69.8484   33.1244 C   0  0  0  0  0  0  0  0  0  0  0  0
    0.5222   70.4030   33.1258 C   0  0  0  0  0  0  0  0  0  0  0  0
    1.3146   69.8944   34.2698 N   0  3  0  0  0  0  0  0  0  0  0  0
    1.1712   70.7844   35.4314 C   0  0  0  0  0  0  0  0  0  0  0  0
    2.0019   70.2633   36.5935 C   0  0  0  0  0  0  0  0  0  0  0  0
    1.6178   68.9358   36.9224 O   0  0  0  0  0  0  0  0  0  0  0  0
    1.7477   68.0526   35.8166 C   0  0  0  0  0  0  0  0  0  0  0  0
    0.9110   68.5286   34.6389 C   0  0  0  0  0  0  0  0  0  0  0  0
   -1.1646   68.6609   32.4523 C   0  0  0  0  0  0  0  0  0  0  0  0
   -0.9601   65.8855   32.1596 H   0  0  0  0  0  0  0  0  0  0  0  0
   -3.8374   64.8529   30.3530 H   0  0  0  0  0  0  0  0  0  0  0  0
   -4.6209   62.6022   30.0917 H   0  0  0  0  0  0  0  0  0  0  0  0
   -1.8333   61.3162   32.8883 H   0  0  0  0  0  0  0  0  0  0  0  0
   -1.0556   63.5691   33.1423 H   0  0  0  0  0  0  0  0  0  0  0  0
   -4.4156   68.4698   33.1224 H   0  0  0  0  0  0  0  0  0  0  0  0
   -3.9196   70.5087   34.2689 H   0  0  0  0  0  0  0  0  0  0  0  0
   -1.6968   71.3899   34.2761 H   0  0  0  0  0  0  0  0  0  0  0  0
    0.4784   71.4006   33.1811 H   0  0  0  0  0  0  0  0  0  0  0  0
    0.9748   70.1359   32.2750 H   0  0  0  0  0  0  0  0  0  0  0  0
    2.2782   69.8771   34.0030 H   0  0  0  0  0  0  0  0  0  0  0  0
    0.2095   70.8220   35.7028 H   0  0  0  0  0  0  0  0  0  0  0  0
    1.4844   71.7019   35.1860 H   0  0  0  0  0  0  0  0  0  0  0  0
    2.9685   70.2726   36.3375 H   0  0  0  0  0  0  0  0  0  0  0  0
    1.8620   70.8531   37.3888 H   0  0  0  0  0  0  0  0  0  0  0  0
    1.4408   67.1406   36.0886 H   0  0  0  0  0  0  0  0  0  0  0  0
    2.7080   68.0127   35.5408 H   0  0  0  0  0  0  0  0  0  0  0  0
    1.0532   67.9173   33.8604 H   0  0  0  0  0  0  0  0  0  0  0  0
   -0.0560   68.5244   34.8937 H   0  0  0  0  0  0  0  0  0  0  0  0
   -0.4362   68.1723   31.9721 H   0  0  0  0  0  0  0  0  0  0  0  0
  1  2  2  0  0  0  0
  2  3  1  0  0  0  0
  3  4  1  0  0  0  0
  4  5  2  0  0  0  0
  5  6  1  0  0  0  0
  6  7  2  0  0  0  0
  7  8  1  0  0  0  0
  8  9  1  0  0  0  0
  9 10  1  0  0  0  0
  9 11  1  0  0  0  0
  9 12  1  0  0  0  0
  7 13  1  0  0  0  0
 13 14  2  0  0  0  0
  2 15  1  0  0  0  0
 15 16  2  0  0  0  0
 16 17  1  0  0  0  0
 17 18  2  0  0  0  0
 18 19  1  0  0  0  0
 19 20  1  0  0  0  0
 20 21  1  0  0  0  0
 21 22  1  0  0  0  0
 22 23  1  0  0  0  0
 23 24  1  0  0  0  0
 24 25  1  0  0  0  0
 25 26  1  0  0  0  0
 19 27  2  0  0  0  0
 14  4  1  0  0  0  0
 27 15  1  0  0  0  0
 26 21  1  0  0  0  0
  3 28  1  0  0  0  0
  5 29  1  0  0  0  0
  6 30  1  0  0  0  0
 13 31  1  0  0  0  0
 14 32  1  0  0  0  0
 16 33  1  0  0  0  0
 17 34  1  0  0  0  0
 18 35  1  0  0  0  0
 20 36  1  0  0  0  0
 20 37  1  0  0  0  0
 21 38  1  0  0  0  0
 22 39  1  0  0  0  0
 22 40  1  0  0  0  0
 23 41  1  0  0  0  0
 23 42  1  0  0  0  0
 25 43  1  0  0  0  0
 25 44  1  0  0  0  0
 26 45  1  0  0  0  0
 26 46  1  0  0  0  0
 27 47  1  0  0  0  0
M  CHG  1  21   1
M  END
>  <docking-score>
-8.24

$$$$
3MS9_MS9_1
foFlexX   03222115273D 1   1.00000     0.00000     0
FlexX 4.5.0 fol007
 20 20  0  0  0  0            999 V2000
   -4.7781   67.5480   32.2809 C   0  0  0  0  0  0  0  0  0  0  0  0
   -4.6201   66.1389   32.3930 O   0  0  0  0  0  0  0  0  0  0  0  0
   -4.3673   65.3172   31.2897 C   0  0  0  0  0  0  0  0  0  0  0  0
   -4.6371   65.7220   30.1251 O   0  0  0  0  0  0  0  0  0  0  0  0
   -3.7413   64.0221   31.4736 C   0  0  0  0  0  0  0  0  0  0  0  0
   -4.4081   62.8895   31.0170 C   0  0  0  0  0  0  0  0  0  0  0  0
   -3.8346   61.6323   31.1777 C   0  0  0  0  0  0  0  0  0  0  0  0
   -2.5938   61.5204   31.7971 C   0  0  0  0  0  0  0  0  0  0  0  0
   -1.8553   59.9140   32.0057 Cl  0  0  0  0  0  0  0  0  0  0  0  0
   -1.9217   62.6486   32.2561 C   0  0  0  0  0  0  0  0  0  0  0  0
   -2.5002   63.9033   32.0922 C   0  0  0  0  0  0  0  0  0  0  0  0
   -1.8090   65.0275   32.5603 N   0  0  0  0  0  0  0  0  0  0  0  0
   -5.5505   67.7499   31.6787 H   0  0  0  0  0  0  0  0  0  0  0  0
   -4.9504   67.9371   33.1859 H   0  0  0  0  0  0  0  0  0  0  0  0
   -3.9446   67.9476   31.8994 H   0  0  0  0  0  0  0  0  0  0  0  0
   -5.2998   62.9792   30.5733 H   0  0  0  0  0  0  0  0  0  0  0  0
   -4.3103   60.8157   30.8508 H   0  0  0  0  0  0  0  0  0  0  0  0
   -1.0302   62.5586   32.7002 H   0  0  0  0  0  0  0  0  0  0  0  0
   -2.2225   65.6149   33.2560 H   0  0  0  0  0  0  0  0  0  0  0  0
   -0.9018   65.2430   32.1989 H   0  0  0  0  0  0  0  0  0  0  0  0
  1  2  1  0  0  0  0
  2  3  1  0  0  0  0
  3  4  2  0  0  0  0
  3  5  1  0  0  0  0
  5  6  2  0  0  0  0
  6  7  1  0  0  0  0
  7  8  2  0  0  0  0
  8  9  1  0  0  0  0
  8 10  1  0  0  0  0
 10 11  2  0  0  0  0
 11 12  1  0  0  0  0
 11  5  1  0  0  0  0
  1 13  1  0  0  0  0
  1 14  1  0  0  0  0
  1 15  1  0  0  0  0
  6 16  1  0  0  0  0
  7 17  1  0  0  0  0
 10 18  1  0  0  0  0
 12 19  1  0  0  0  0
 12 20  1  0  0  0  0
M  END
>  <docking-score>
-8.13

$$$$
3MS9_MS9_2
foFlexX   03222115273D 1   1.00000     0.00000     0
FlexX 4.5.0 fol007
 20 20  0  0  0  0            999 V2000
   -5.1100   67.0300   29.4875 C   0  0  0  0  0  0  0  0  0  0  0  0
   -4.2777   66.0003   30.0069 O   0  0  0  0  0  0  0  0  0  0  0  0
   -4.4932   65.4143   31.2585 C   0  0  0  0  0  0  0  0  0  0  0  0
   -5.1863   66.0140   32.1264 O   0  0  0  0  0  0  0  0  0  0  0  0
   -3.9714   64.0917   31.5437 C   0  0  0  0  0  0  0  0  0  0  0  0
   -4.7454   62.9845   31.2106 C   0  0  0  0  0  0  0  0  0  0  0  0
   -4.2734   61.7019   31.4707 C   0  0  0  0  0  0  0  0  0  0  0  0
   -3.0259   61.5393   32.0647 C   0  0  0  0  0  0  0  0  0  0  0  0
   -2.4170   59.9003   32.4002 Cl  0  0  0  0  0  0  0  0  0  0  0  0
   -2.2469   62.6420   32.4005 C   0  0  0  0  0  0  0  0  0  0  0  0
   -2.7241   63.9221   32.1377 C   0  0  0  0  0  0  0  0  0  0  0  0
   -1.9261   65.0199   32.4823 N   0  0  0  0  0  0  0  0  0  0  0  0
   -5.0884   67.8182   30.1025 H   0  0  0  0  0  0  0  0  0  0  0  0
   -4.7785   67.3028   28.5843 H   0  0  0  0  0  0  0  0  0  0  0  0
   -6.0484   66.6930   29.4104 H   0  0  0  0  0  0  0  0  0  0  0  0
   -5.6411   63.1107   30.7842 H   0  0  0  0  0  0  0  0  0  0  0  0
   -4.8263   60.9034   31.2327 H   0  0  0  0  0  0  0  0  0  0  0  0
   -1.3514   62.5155   32.8272 H   0  0  0  0  0  0  0  0  0  0  0  0
   -2.2653   65.7004   33.1319 H   0  0  0  0  0  0  0  0  0  0  0  0
   -1.0170   65.1235   32.0788 H   0  0  0  0  0  0  0  0  0  0  0  0
  1  2  1  0  0  0  0
  2  3  1  0  0  0  0
  3  4  2  0  0  0  0
  3  5  1  0  0  0  0
  5  6  2  0  0  0  0
  6  7  1  0  0  0  0
  7  8  2  0  0  0  0
  8  9  1  0  0  0  0
  8 10  1  0  0  0  0
 10 11  2  0  0  0  0
 11 12  1  0  0  0  0
 11  5  1  0  0  0  0
  1 13  1  0  0  0  0
  1 14  1  0  0  0  0
  1 15  1  0  0  0  0
  6 16  1  0  0  0  0
  7 17  1  0  0  0  0
 10 18  1  0  0  0  0
 12 19  1  0  0  0  0
 12 20  1  0  0  0  0
M  END
>  <docking-score>
-7.18

$$$$
3MS9_MS9_3
foFlexX   03222115273D 1   1.00000     0.00000     0
FlexX 4.5.0 fol007
 20 20  0  0  0  0            999 V2000
   -8.0320   58.9733   29.4357 C   0  0  0  0  0  0  0  0  0  0  0  0
   -6.6787   59.4110   29.4346 O   0  0  0  0  0  0  0  0  0  0  0  0
   -6.1503   60.2338   30.4346 C   0  0  0  0  0  0  0  0  0  0  0  0
   -6.9211   60.9198   31.1616 O   0  0  0  0  0  0  0  0  0  0  0  0
   -4.7211   60.2580   30.6790 C   0  0  0  0  0  0  0  0  0  0  0  0
   -3.9738   59.1252   30.3716 C   0  0  0  0  0  0  0  0  0  0  0  0
   -2.6005   59.1162   30.5938 C   0  0  0  0  0  0  0  0  0  0  0  0
   -1.9858   60.2460   31.1243 C   0  0  0  0  0  0  0  0  0  0  0  0
   -0.2288   60.2399   31.4111 Cl  0  0  0  0  0  0  0  0  0  0  0  0
   -2.7269   61.3818   31.4341 C   0  0  0  0  0  0  0  0  0  0  0  0
   -4.1000   61.3850   31.2094 C   0  0  0  0  0  0  0  0  0  0  0  0
   -4.8295   62.5372   31.5270 N   0  0  0  0  0  0  0  0  0  0  0  0
   -8.6392   59.7673   29.4065 H   0  0  0  0  0  0  0  0  0  0  0  0
   -8.1969   58.3979   28.6346 H   0  0  0  0  0  0  0  0  0  0  0  0
   -8.2113   58.4469   30.2668 H   0  0  0  0  0  0  0  0  0  0  0  0
   -4.4239   58.3175   29.9909 H   0  0  0  0  0  0  0  0  0  0  0  0
   -2.0596   58.3043   30.3741 H   0  0  0  0  0  0  0  0  0  0  0  0
   -2.2766   62.1893   31.8151 H   0  0  0  0  0  0  0  0  0  0  0  0
   -4.8404   62.8789   32.4668 H   0  0  0  0  0  0  0  0  0  0  0  0
   -5.3397   63.0183   30.8141 H   0  0  0  0  0  0  0  0  0  0  0  0
  1  2  1  0  0  0  0
  2  3  1  0  0  0  0
  3  4  2  0  0  0  0
  3  5  1  0  0  0  0
  5  6  2  0  0  0  0
  6  7  1  0  0  0  0
  7  8  2  0  0  0  0
  8  9  1  0  0  0  0
  8 10  1  0  0  0  0
 10 11  2  0  0  0  0
 11 12  1  0  0  0  0
 11  5  1  0  0  0  0
  1 13  1  0  0  0  0
  1 14  1  0  0  0  0
  1 15  1  0  0  0  0
  6 16  1  0  0  0  0
  7 17  1  0  0  0  0
 10 18  1  0  0  0  0
 12 19  1  0  0  0  0
 12 20  1  0  0  0  0
M  END
>  <docking-score>
-7.09

$$$$
3K5V_STJ_1
foFlexX   03222115273D 1   1.00000     0.00000     0
FlexX 4.5.0 fol007
 40 42  0  0  0  0            999 V2000
    1.1219   67.5195   33.5908 N   0  0  0  0  0  0  0  0  0  0  0  0
    0.4538   68.7834   33.6345 C   0  0  0  0  0  0  0  0  0  0  0  0
    1.1274   69.8188   33.8880 O   0  0  0  0  0  0  0  0  0  0  0  0
   -1.0023   68.9007   33.3739 C   0  0  0  0  0  0  0  0  0  0  0  0
   -1.6936   70.0286   33.8038 C   0  0  0  0  0  0  0  0  0  0  0  0
   -3.0585   70.1211   33.5505 C   0  0  0  0  0  0  0  0  0  0  0  0
   -3.7323   69.1068   32.8783 C   0  0  0  0  0  0  0  0  0  0  0  0
   -3.0209   67.9878   32.4569 C   0  0  0  0  0  0  0  0  0  0  0  0
   -3.7133   66.9241   31.7546 C   0  0  0  0  0  0  0  0  0  0  0  0
   -3.2512   65.6180   31.8790 C   0  0  0  0  0  0  0  0  0  0  0  0
   -3.9225   64.6056   31.2012 C   0  0  0  0  0  0  0  0  0  0  0  0
   -3.4654   63.2867   31.3187 N   0  0  0  0  0  0  0  0  0  0  0  0
   -4.3153   62.1301   31.2339 C   0  0  0  0  0  0  0  0  0  0  0  0
   -3.8009   60.9340   30.7433 C   0  0  0  0  0  0  0  0  0  0  0  0
   -4.6160   59.8095   30.6577 C   0  0  0  0  0  0  0  0  0  0  0  0
   -5.9424   59.8997   31.0664 C   0  0  0  0  0  0  0  0  0  0  0  0
   -6.7434   58.8165   30.9878 O   0  0  0  0  0  0  0  0  0  0  0  0
   -7.9437   58.7334   30.2224 C   0  0  0  0  0  0  0  0  0  0  0  0
   -7.6709   58.9460   28.8829 F   0  0  0  0  0  0  0  0  0  0  0  0
   -8.4838   57.4708   30.3718 F   0  0  0  0  0  0  0  0  0  0  0  0
   -8.8610   59.6665   30.6711 F   0  0  0  0  0  0  0  0  0  0  0  0
   -6.4656   61.0920   31.5578 C   0  0  0  0  0  0  0  0  0  0  0  0
   -5.6436   62.2110   31.6402 C   0  0  0  0  0  0  0  0  0  0  0  0
   -4.9908   64.9175   30.4516 N   0  0  0  0  0  0  0  0  0  0  0  0
   -5.4250   66.1820   30.3413 C   0  0  0  0  0  0  0  0  0  0  0  0
   -4.7874   67.1687   30.9891 N   0  0  0  0  0  0  0  0  0  0  0  0
   -1.6557   67.8745   32.6996 C   0  0  0  0  0  0  0  0  0  0  0  0
    1.9302   67.3613   34.1579 H   0  0  0  0  0  0  0  0  0  0  0  0
    0.7807   66.7940   32.9931 H   0  0  0  0  0  0  0  0  0  0  0  0
   -1.2166   70.7622   34.2878 H   0  0  0  0  0  0  0  0  0  0  0  0
   -3.5626   70.9289   33.8562 H   0  0  0  0  0  0  0  0  0  0  0  0
   -4.7136   69.1807   32.7005 H   0  0  0  0  0  0  0  0  0  0  0  0
   -2.4527   65.4110   32.4443 H   0  0  0  0  0  0  0  0  0  0  0  0
   -2.4879   63.1406   31.4709 H   0  0  0  0  0  0  0  0  0  0  0  0
   -2.8456   60.8826   30.4523 H   0  0  0  0  0  0  0  0  0  0  0  0
   -4.2523   58.9467   30.3065 H   0  0  0  0  0  0  0  0  0  0  0  0
   -7.4211   61.1436   31.8482 H   0  0  0  0  0  0  0  0  0  0  0  0
   -6.0073   63.0738   31.9915 H   0  0  0  0  0  0  0  0  0  0  0  0
   -6.2238   66.3890   29.7764 H   0  0  0  0  0  0  0  0  0  0  0  0
   -1.1515   67.0669   32.3937 H   0  0  0  0  0  0  0  0  0  0  0  0
  1  2  1  0  0  0  0
  2  3  2  0  0  0  0
  2  4  1  0  0  0  0
  4  5  2  0  0  0  0
  5  6  1  0  0  0  0
  6  7  2  0  0  0  0
  7  8  1  0  0  0  0
  8  9  1  0  0  0  0
  9 10  2  0  0  0  0
 10 11  1  0  0  0  0
 11 12  1  0  0  0  0
 12 13  1  0  0  0  0
 13 14  2  0  0  0  0
 14 15  1  0  0  0  0
 15 16  2  0  0  0  0
 16 17  1  0  0  0  0
 17 18  1  0  0  0  0
 18 19  1  0  0  0  0
 18 20  1  0  0  0  0
 18 21  1  0  0  0  0
 16 22  1  0  0  0  0
 22 23  2  0  0  0  0
 11 24  2  0  0  0  0
 24 25  1  0  0  0  0
 25 26  2  0  0  0  0
  8 27  2  0  0  0  0
 27  4  1  0  0  0  0
 26  9  1  0  0  0  0
 23 13  1  0  0  0  0
  1 28  1  0  0  0  0
  1 29  1  0  0  0  0
  5 30  1  0  0  0  0
  6 31  1  0  0  0  0
  7 32  1  0  0  0  0
 10 33  1  0  0  0  0
 12 34  1  0  0  0  0
 14 35  1  0  0  0  0
 15 36  1  0  0  0  0
 22 37  1  0  0  0  0
 23 38  1  0  0  0  0
 25 39  1  0  0  0  0
 27 40  1  0  0  0  0
M  END
>  <docking-score>
-2.98

$$$$
3K5V_STJ_2
foFlexX   03222115273D 1   1.00000     0.00000     0
FlexX 4.5.0 fol007
 40 42  0  0  0  0            999 V2000
    0.9513   67.1079   33.8386 N   0  0  0  0  0  0  0  0  0  0  0  0
    0.3143   68.3860   33.7585 C   0  0  0  0  0  0  0  0  0  0  0  0
    0.9725   69.4142   34.0741 O   0  0  0  0  0  0  0  0  0  0  0  0
   -1.0899   68.5256   33.3000 C   0  0  0  0  0  0  0  0  0  0  0  0
   -1.8054   69.6795   33.6028 C   0  0  0  0  0  0  0  0  0  0  0  0
   -3.1209   69.7927   33.1644 C   0  0  0  0  0  0  0  0  0  0  0  0
   -3.7223   68.7734   32.4336 C   0  0  0  0  0  0  0  0  0  0  0  0
   -2.9879   67.6282   32.1418 C   0  0  0  0  0  0  0  0  0  0  0  0
   -3.6049   66.5591   31.3799 C   0  0  0  0  0  0  0  0  0  0  0  0
   -3.1957   65.2479   31.5997 C   0  0  0  0  0  0  0  0  0  0  0  0
   -3.7938   64.2303   30.8636 C   0  0  0  0  0  0  0  0  0  0  0  0
   -3.3889   62.9063   31.0761 N   0  0  0  0  0  0  0  0  0  0  0  0
   -4.2475   61.7655   30.9069 C   0  0  0  0  0  0  0  0  0  0  0  0
   -3.7009   60.5454   30.5218 C   0  0  0  0  0  0  0  0  0  0  0  0
   -4.5240   59.4358   30.3557 C   0  0  0  0  0  0  0  0  0  0  0  0
   -5.8909   59.5651   30.5783 C   0  0  0  0  0  0  0  0  0  0  0  0
   -6.7000   58.4968   30.4199 O   0  0  0  0  0  0  0  0  0  0  0  0
   -7.0386   57.5612   31.4414 C   0  0  0  0  0  0  0  0  0  0  0  0
   -7.6715   58.2067   32.4886 F   0  0  0  0  0  0  0  0  0  0  0  0
   -7.8985   56.6161   30.9162 F   0  0  0  0  0  0  0  0  0  0  0  0
   -5.9003   56.9224   31.8996 F   0  0  0  0  0  0  0  0  0  0  0  0
   -6.4465   60.7817   30.9631 C   0  0  0  0  0  0  0  0  0  0  0  0
   -5.6161   61.8855   31.1271 C   0  0  0  0  0  0  0  0  0  0  0  0
   -4.7432   64.5423   29.9682 N   0  0  0  0  0  0  0  0  0  0  0  0
   -5.1277   65.8118   29.7673 C   0  0  0  0  0  0  0  0  0  0  0  0
   -4.5596   66.8035   30.4697 N   0  0  0  0  0  0  0  0  0  0  0  0
   -1.6712   67.4939   32.5702 C   0  0  0  0  0  0  0  0  0  0  0  0
    1.6716   66.9496   34.5140 H   0  0  0  0  0  0  0  0  0  0  0  0
    0.6764   66.3725   33.2192 H   0  0  0  0  0  0  0  0  0  0  0  0
   -1.3804   70.4169   34.1278 H   0  0  0  0  0  0  0  0  0  0  0  0
   -3.6418   70.6192   33.3779 H   0  0  0  0  0  0  0  0  0  0  0  0
   -4.6686   68.8624   32.1226 H   0  0  0  0  0  0  0  0  0  0  0  0
   -2.4861   65.0411   32.2732 H   0  0  0  0  0  0  0  0  0  0  0  0
   -2.4448   62.7446   31.3632 H   0  0  0  0  0  0  0  0  0  0  0  0
   -2.7165   60.4658   30.3644 H   0  0  0  0  0  0  0  0  0  0  0  0
   -4.1374   58.5559   30.0795 H   0  0  0  0  0  0  0  0  0  0  0  0
   -7.4309   60.8613   31.1198 H   0  0  0  0  0  0  0  0  0  0  0  0
   -6.0028   62.7653   31.4034 H   0  0  0  0  0  0  0  0  0  0  0  0
   -5.8377   66.0187   29.0941 H   0  0  0  0  0  0  0  0  0  0  0  0
   -1.1501   66.6676   32.3566 H   0  0  0  0  0  0  0  0  0  0  0  0
  1  2  1  0  0  0  0
  2  3  2  0  0  0  0
  2  4  1  0  0  0  0
  4  5  2  0  0  0  0
  5  6  1  0  0  0  0
  6  7  2  0  0  0  0
  7  8  1  0  0  0  0
  8  9  1  0  0  0  0
  9 10  2  0  0  0  0
 10 11  1  0  0  0  0
 11 12  1  0  0  0  0
 12 13  1  0  0  0  0
 13 14  2  0  0  0  0
 14 15  1  0  0  0  0
 15 16  2  0  0  0  0
 16 17  1  0  0  0  0
 17 18  1  0  0  0  0
 18 19  1  0  0  0  0
 18 20  1  0  0  0  0
 18 21  1  0  0  0  0
 16 22  1  0  0  0  0
 22 23  2  0  0  0  0
 11 24  2  0  0  0  0
 24 25  1  0  0  0  0
 25 26  2  0  0  0  0
  8 27  2  0  0  0  0
 27  4  1  0  0  0  0
 26  9  1  0  0  0  0
 23 13  1  0  0  0  0
  1 28  1  0  0  0  0
  1 29  1  0  0  0  0
  5 30  1  0  0  0  0
  6 31  1  0  0  0  0
  7 32  1  0  0  0  0
 10 33  1  0  0  0  0
 12 34  1  0  0  0  0
 14 35  1  0  0  0  0
 15 36  1  0  0  0  0
 22 37  1  0  0  0  0
 23 38  1  0  0  0  0
 25 39  1  0  0  0  0
 27 40  1  0  0  0  0
M  END
>  <docking-score>
-2.90

$$$$
3K5V_STJ_3
foFlexX   03222115273D 1   1.00000     0.00000     0
FlexX 4.5.0 fol007
 40 42  0  0  0  0            999 V2000
    3.6187   68.9356   35.0930 N   0  0  0  0  0  0  0  0  0  0  0  0
    2.1956   68.9685   34.9539 C   0  0  0  0  0  0  0  0  0  0  0  0
    1.4811   68.8741   35.9887 O   0  0  0  0  0  0  0  0  0  0  0  0
    1.5491   69.1262   33.6277 C   0  0  0  0  0  0  0  0  0  0  0  0
    2.0976   69.9943   32.6892 C   0  0  0  0  0  0  0  0  0  0  0  0
    1.4777   70.1292   31.4510 C   0  0  0  0  0  0  0  0  0  0  0  0
    0.3261   69.4118   31.1449 C   0  0  0  0  0  0  0  0  0  0  0  0
   -0.2050   68.5488   32.0985 C   0  0  0  0  0  0  0  0  0  0  0  0
   -1.4055   67.7953   31.7899 C   0  0  0  0  0  0  0  0  0  0  0  0
   -1.5943   66.5506   32.3815 C   0  0  0  0  0  0  0  0  0  0  0  0
   -2.7489   65.8364   32.0786 C   0  0  0  0  0  0  0  0  0  0  0  0
   -2.9490   64.5815   32.6681 N   0  0  0  0  0  0  0  0  0  0  0  0
   -3.0965   63.3586   31.9265 C   0  0  0  0  0  0  0  0  0  0  0  0
   -2.1928   62.3200   32.1273 C   0  0  0  0  0  0  0  0  0  0  0  0
   -2.3278   61.1328   31.4142 C   0  0  0  0  0  0  0  0  0  0  0  0
   -3.3718   61.0023   30.5044 C   0  0  0  0  0  0  0  0  0  0  0  0
   -3.5132   59.8563   29.8060 O   0  0  0  0  0  0  0  0  0  0  0  0
   -3.7199   58.5651   30.3748 C   0  0  0  0  0  0  0  0  0  0  0  0
   -4.8847   58.5537   31.1212 F   0  0  0  0  0  0  0  0  0  0  0  0
   -3.8352   57.6398   29.3557 F   0  0  0  0  0  0  0  0  0  0  0  0
   -2.6446   58.2177   31.1728 F   0  0  0  0  0  0  0  0  0  0  0  0
   -4.2801   62.0360   30.2966 C   0  0  0  0  0  0  0  0  0  0  0  0
   -4.1377   63.2191   31.0140 C   0  0  0  0  0  0  0  0  0  0  0  0
   -3.6419   66.3669   31.2292 N   0  0  0  0  0  0  0  0  0  0  0  0
   -3.4462   67.5688   30.6664 C   0  0  0  0  0  0  0  0  0  0  0  0
   -2.3373   68.2689   30.9490 N   0  0  0  0  0  0  0  0  0  0  0  0
    0.3984   68.3986   33.3429 C   0  0  0  0  0  0  0  0  0  0  0  0
    4.0633   68.1354   35.4955 H   0  0  0  0  0  0  0  0  0  0  0  0
    4.1690   69.7127   34.7879 H   0  0  0  0  0  0  0  0  0  0  0  0
    2.9253   70.5138   32.9015 H   0  0  0  0  0  0  0  0  0  0  0  0
    1.8659   70.7511   30.7710 H   0  0  0  0  0  0  0  0  0  0  0  0
   -0.1137   69.5147   30.2527 H   0  0  0  0  0  0  0  0  0  0  0  0
   -0.9139   66.1769   33.0119 H   0  0  0  0  0  0  0  0  0  0  0  0
   -2.9918   64.5333   33.6660 H   0  0  0  0  0  0  0  0  0  0  0  0
   -1.4462   62.4267   32.7840 H   0  0  0  0  0  0  0  0  0  0  0  0
   -1.6819   60.3823   31.5541 H   0  0  0  0  0  0  0  0  0  0  0  0
   -5.0262   61.9295   29.6394 H   0  0  0  0  0  0  0  0  0  0  0  0
   -4.7837   63.9695   30.8741 H   0  0  0  0  0  0  0  0  0  0  0  0
   -4.1268   67.9428   30.0363 H   0  0  0  0  0  0  0  0  0  0  0  0
    0.0104   67.7765   34.0230 H   0  0  0  0  0  0  0  0  0  0  0  0
  1  2  1  0  0  0  0
  2  3  2  0  0  0  0
  2  4  1  0  0  0  0
  4  5  2  0  0  0  0
  5  6  1  0  0  0  0
  6  7  2  0  0  0  0
  7  8  1  0  0  0  0
  8  9  1  0  0  0  0
  9 10  2  0  0  0  0
 10 11  1  0  0  0  0
 11 12  1  0  0  0  0
 12 13  1  0  0  0  0
 13 14  2  0  0  0  0
 14 15  1  0  0  0  0
 15 16  2  0  0  0  0
 16 17  1  0  0  0  0
 17 18  1  0  0  0  0
 18 19  1  0  0  0  0
 18 20  1  0  0  0  0
 18 21  1  0  0  0  0
 16 22  1  0  0  0  0
 22 23  2  0  0  0  0
 11 24  2  0  0  0  0
 24 25  1  0  0  0  0
 25 26  2  0  0  0  0
  8 27  2  0  0  0  0
 27  4  1  0  0  0  0
 26  9  1  0  0  0  0
 23 13  1  0  0  0  0
  1 28  1  0  0  0  0
  1 29  1  0  0  0  0
  5 30  1  0  0  0  0
  6 31  1  0  0  0  0
  7 32  1  0  0  0  0
 10 33  1  0  0  0  0
 12 34  1  0  0  0  0
 14 35  1  0  0  0  0
 15 36  1  0  0  0  0
 22 37  1  0  0  0  0
 23 38  1  0  0  0  0
 25 39  1  0  0  0  0
 27 40  1  0  0  0  0
M  END
>  <docking-score>
-1.89

$$$$
