1FPU_PRC_1
foFlexX   03222115283D 1   1.00000     0.00000     0
FlexX 4.5.0 fol007
 47 50  0  0  0  0            999 V2000
   23.1550   42.4713   54.0612 C   0  0  0  0  0  0  0  0  0  0  0  0
   22.7302   43.4680   55.1273 C   0  0  0  0  0  0  0  0  0  0  0  0
   23.6441   44.4289   55.5470 C   0  0  0  0  0  0  0  0  0  0  0  0
   23.2827   45.3542   56.5210 C   0  0  0  0  0  0  0  0  0  0  0  0
   22.0037   45.3064   57.0659 C   0  0  0  0  0  0  0  0  0  0  0  0
   21.6300   46.2328   58.0467 N   0  0  0  0  0  0  0  0  0  0  0  0
   22.5460   46.8250   58.9803 C   0  0  0  0  0  0  0  0  0  0  0  0
   22.1211   47.1598   60.1186 O   0  0  0  0  0  0  0  0  0  0  0  0
   23.9592   47.0955   58.6228 C   0  0  0  0  0  0  0  0  0  0  0  0
   24.9713   46.7064   59.4938 C   0  0  0  0  0  0  0  0  0  0  0  0
   26.2955   46.9611   59.1544 C   0  0  0  0  0  0  0  0  0  0  0  0
   26.5654   47.5998   57.9488 C   0  0  0  0  0  0  0  0  0  0  0  0
   25.5718   47.9656   57.1253 N   0  0  0  0  0  0  0  0  0  0  0  0
   24.2865   47.7311   57.4295 C   0  0  0  0  0  0  0  0  0  0  0  0
   21.0841   44.3485   56.6514 C   0  0  0  0  0  0  0  0  0  0  0  0
   21.4526   43.4262   55.6771 C   0  0  0  0  0  0  0  0  0  0  0  0
   20.5380   42.4562   55.2495 N   0  0  0  0  0  0  0  0  0  0  0  0
   20.1011   42.3470   53.8876 C   0  0  0  0  0  0  0  0  0  0  0  0
   20.1472   43.4341   53.1035 N   0  0  0  0  0  0  0  0  0  0  0  0
   19.7516   43.3908   51.8228 C   0  0  0  0  0  0  0  0  0  0  0  0
   19.2822   42.1945   51.2903 C   0  0  0  0  0  0  0  0  0  0  0  0
   19.2378   41.0728   52.1111 C   0  0  0  0  0  0  0  0  0  0  0  0
   18.7489   39.8202   51.5632 C   0  0  0  0  0  0  0  0  0  0  0  0
   18.1118   38.9101   52.4002 C   0  0  0  0  0  0  0  0  0  0  0  0
   17.6442   37.7121   51.8715 C   0  0  0  0  0  0  0  0  0  0  0  0
   17.8300   37.4622   50.5160 C   0  0  0  0  0  0  0  0  0  0  0  0
   18.4477   38.3556   49.7290 N   0  0  0  0  0  0  0  0  0  0  0  0
   18.9075   39.5185   50.2146 C   0  0  0  0  0  0  0  0  0  0  0  0
   19.6495   41.1869   53.3844 N   0  0  0  0  0  0  0  0  0  0  0  0
   22.3969   41.8492   53.8654 H   0  0  0  0  0  0  0  0  0  0  0  0
   23.4072   42.9623   53.2274 H   0  0  0  0  0  0  0  0  0  0  0  0
   23.9405   41.9466   54.3895 H   0  0  0  0  0  0  0  0  0  0  0  0
   24.5610   44.4546   55.1486 H   0  0  0  0  0  0  0  0  0  0  0  0
   23.9359   46.0470   56.8263 H   0  0  0  0  0  0  0  0  0  0  0  0
   20.6673   46.4980   58.1003 H   0  0  0  0  0  0  0  0  0  0  0  0
   24.7492   46.2486   60.3546 H   0  0  0  0  0  0  0  0  0  0  0  0
   27.0393   46.6902   59.7654 H   0  0  0  0  0  0  0  0  0  0  0  0
   27.5133   47.7890   57.6924 H   0  0  0  0  0  0  0  0  0  0  0  0
   23.5637   48.0131   56.7986 H   0  0  0  0  0  0  0  0  0  0  0  0
   20.1672   44.3230   57.0497 H   0  0  0  0  0  0  0  0  0  0  0  0
   20.1737   41.8121   55.9221 H   0  0  0  0  0  0  0  0  0  0  0  0
   19.7937   44.2127   51.2547 H   0  0  0  0  0  0  0  0  0  0  0  0
   18.9830   42.1423   50.3375 H   0  0  0  0  0  0  0  0  0  0  0  0
   17.9915   39.1152   53.3715 H   0  0  0  0  0  0  0  0  0  0  0  0
   17.1833   37.0432   52.4547 H   0  0  0  0  0  0  0  0  0  0  0  0
   17.4985   36.6046   50.1228 H   0  0  0  0  0  0  0  0  0  0  0  0
   19.3643   40.1684   49.6072 H   0  0  0  0  0  0  0  0  0  0  0  0
  1  2  1  0  0  0  0
  2  3  2  0  0  0  0
  3  4  1  0  0  0  0
  4  5  2  0  0  0  0
  5  6  1  0  0  0  0
  6  7  1  0  0  0  0
  7  8  2  0  0  0  0
  7  9  1  0  0  0  0
  9 10  2  0  0  0  0
 10 11  1  0  0  0  0
 11 12  2  0  0  0  0
 12 13  1  0  0  0  0
 13 14  2  0  0  0  0
  5 15  1  0  0  0  0
 15 16  2  0  0  0  0
 16 17  1  0  0  0  0
 17 18  1  0  0  0  0
 18 19  2  0  0  0  0
 19 20  1  0  0  0  0
 20 21  2  0  0  0  0
 21 22  1  0  0  0  0
 22 23  1  0  0  0  0
 23 24  2  0  0  0  0
 24 25  1  0  0  0  0
 25 26  2  0  0  0  0
 26 27  1  0  0  0  0
 27 28  2  0  0  0  0
 22 29  2  0  0  0  0
 16  2  1  0  0  0  0
 29 18  1  0  0  0  0
 14  9  1  0  0  0  0
 28 23  1  0  0  0  0
  1 30  1  0  0  0  0
  1 31  1  0  0  0  0
  1 32  1  0  0  0  0
  3 33  1  0  0  0  0
  4 34  1  0  0  0  0
  6 35  1  0  0  0  0
 10 36  1  0  0  0  0
 11 37  1  0  0  0  0
 12 38  1  0  0  0  0
 14 39  1  0  0  0  0
 15 40  1  0  0  0  0
 17 41  1  0  0  0  0
 20 42  1  0  0  0  0
 21 43  1  0  0  0  0
 24 44  1  0  0  0  0
 25 45  1  0  0  0  0
 26 46  1  0  0  0  0
 28 47  1  0  0  0  0
M  END
>  <docking-score>
-21.97

$$$$
1FPU_PRC_2
foFlexX   03222115283D 1   1.00000     0.00000     0
FlexX 4.5.0 fol007
 47 50  0  0  0  0            999 V2000
   18.1212   43.6752   55.7583 C   0  0  0  0  0  0  0  0  0  0  0  0
   18.9867   43.1285   54.6346 C   0  0  0  0  0  0  0  0  0  0  0  0
   18.4167   42.2524   53.7169 C   0  0  0  0  0  0  0  0  0  0  0  0
   19.1849   41.7367   52.6779 C   0  0  0  0  0  0  0  0  0  0  0  0
   20.5215   42.1062   52.5695 C   0  0  0  0  0  0  0  0  0  0  0  0
   21.3034   41.5927   51.5278 N   0  0  0  0  0  0  0  0  0  0  0  0
   21.0935   40.3053   50.9280 C   0  0  0  0  0  0  0  0  0  0  0  0
   22.0847   39.6873   50.4543 O   0  0  0  0  0  0  0  0  0  0  0  0
   19.7408   39.7106   50.8089 C   0  0  0  0  0  0  0  0  0  0  0  0
   19.5377   38.3903   51.1964 C   0  0  0  0  0  0  0  0  0  0  0  0
   18.2673   37.8364   51.0840 C   0  0  0  0  0  0  0  0  0  0  0  0
   17.2361   38.6253   50.5852 C   0  0  0  0  0  0  0  0  0  0  0  0
   17.4568   39.8963   50.2179 N   0  0  0  0  0  0  0  0  0  0  0  0
   18.6730   40.4539   50.3168 C   0  0  0  0  0  0  0  0  0  0  0  0
   21.0988   42.9819   53.4834 C   0  0  0  0  0  0  0  0  0  0  0  0
   20.3245   43.4935   54.5199 C   0  0  0  0  0  0  0  0  0  0  0  0
   20.9070   44.4004   55.4730 N   0  0  0  0  0  0  0  0  0  0  0  0
   22.2461   44.8069   55.4132 C   0  0  0  0  0  0  0  0  0  0  0  0
   22.8516   45.2101   56.5400 N   0  0  0  0  0  0  0  0  0  0  0  0
   24.1316   45.6102   56.5423 C   0  0  0  0  0  0  0  0  0  0  0  0
   24.8525   45.6089   55.3527 C   0  0  0  0  0  0  0  0  0  0  0  0
   24.2162   45.1894   54.1895 C   0  0  0  0  0  0  0  0  0  0  0  0
   24.9614   45.1852   52.9433 C   0  0  0  0  0  0  0  0  0  0  0  0
   25.6692   46.3215   52.5661 C   0  0  0  0  0  0  0  0  0  0  0  0
   26.3823   46.3133   51.3724 C   0  0  0  0  0  0  0  0  0  0  0  0
   26.3641   45.1628   50.5911 C   0  0  0  0  0  0  0  0  0  0  0  0
   25.6737   44.0792   50.9762 N   0  0  0  0  0  0  0  0  0  0  0  0
   24.9781   44.0618   52.1232 C   0  0  0  0  0  0  0  0  0  0  0  0
   22.9322   44.8018   54.2589 N   0  0  0  0  0  0  0  0  0  0  0  0
   18.6665   44.2867   56.3317 H   0  0  0  0  0  0  0  0  0  0  0  0
   17.3511   44.1812   55.3698 H   0  0  0  0  0  0  0  0  0  0  0  0
   17.7767   42.9175   56.3125 H   0  0  0  0  0  0  0  0  0  0  0  0
   17.4548   41.9933   53.8038 H   0  0  0  0  0  0  0  0  0  0  0  0
   18.7801   41.1063   52.0155 H   0  0  0  0  0  0  0  0  0  0  0  0
   22.0529   42.1564   51.1808 H   0  0  0  0  0  0  0  0  0  0  0  0
   20.2971   37.8453   51.5518 H   0  0  0  0  0  0  0  0  0  0  0  0
   18.0983   36.8892   51.3566 H   0  0  0  0  0  0  0  0  0  0  0  0
   16.3176   38.2395   50.4993 H   0  0  0  0  0  0  0  0  0  0  0  0
   18.8118   41.4038   50.0367 H   0  0  0  0  0  0  0  0  0  0  0  0
   22.0607   43.2410   53.3962 H   0  0  0  0  0  0  0  0  0  0  0  0
   20.3313   44.7557   56.2095 H   0  0  0  0  0  0  0  0  0  0  0  0
   24.5648   45.9073   57.3933 H   0  0  0  0  0  0  0  0  0  0  0  0
   25.8080   45.9033   55.3343 H   0  0  0  0  0  0  0  0  0  0  0  0
   25.6653   47.1355   53.1469 H   0  0  0  0  0  0  0  0  0  0  0  0
   26.8983   47.1189   51.0814 H   0  0  0  0  0  0  0  0  0  0  0  0
   26.8728   45.1432   49.7303 H   0  0  0  0  0  0  0  0  0  0  0  0
   24.4717   43.2414   52.3885 H   0  0  0  0  0  0  0  0  0  0  0  0
  1  2  1  0  0  0  0
  2  3  2  0  0  0  0
  3  4  1  0  0  0  0
  4  5  2  0  0  0  0
  5  6  1  0  0  0  0
  6  7  1  0  0  0  0
  7  8  2  0  0  0  0
  7  9  1  0  0  0  0
  9 10  2  0  0  0  0
 10 11  1  0  0  0  0
 11 12  2  0  0  0  0
 12 13  1  0  0  0  0
 13 14  2  0  0  0  0
  5 15  1  0  0  0  0
 15 16  2  0  0  0  0
 16 17  1  0  0  0  0
 17 18  1  0  0  0  0
 18 19  2  0  0  0  0
 19 20  1  0  0  0  0
 20 21  2  0  0  0  0
 21 22  1  0  0  0  0
 22 23  1  0  0  0  0
 23 24  2  0  0  0  0
 24 25  1  0  0  0  0
 25 26  2  0  0  0  0
 26 27  1  0  0  0  0
 27 28  2  0  0  0  0
 22 29  2  0  0  0  0
 16  2  1  0  0  0  0
 29 18  1  0  0  0  0
 14  9  1  0  0  0  0
 28 23  1  0  0  0  0
  1 30  1  0  0  0  0
  1 31  1  0  0  0  0
  1 32  1  0  0  0  0
  3 33  1  0  0  0  0
  4 34  1  0  0  0  0
  6 35  1  0  0  0  0
 10 36  1  0  0  0  0
 11 37  1  0  0  0  0
 12 38  1  0  0  0  0
 14 39  1  0  0  0  0
 15 40  1  0  0  0  0
 17 41  1  0  0  0  0
 20 42  1  0  0  0  0
 21 43  1  0  0  0  0
 24 44  1  0  0  0  0
 25 45  1  0  0  0  0
 26 46  1  0  0  0  0
 28 47  1  0  0  0  0
M  END
>  <docking-score>
-20.14

$$$$
1FPU_PRC_3
foFlexX   03222115283D 1   1.00000     0.00000     0
FlexX 4.5.0 fol007
 47 50  0  0  0  0            999 V2000
   23.0979   42.4540   54.2815 C   0  0  0  0  0  0  0  0  0  0  0  0
   22.6660   43.4899   55.3068 C   0  0  0  0  0  0  0  0  0  0  0  0
   23.5922   44.4361   55.7328 C   0  0  0  0  0  0  0  0  0  0  0  0
   23.2247   45.3964   56.6699 C   0  0  0  0  0  0  0  0  0  0  0  0
   21.9274   45.3981   57.1719 C   0  0  0  0  0  0  0  0  0  0  0  0
   21.5474   46.3600   58.1155 N   0  0  0  0  0  0  0  0  0  0  0  0
   22.4481   46.9513   59.0644 C   0  0  0  0  0  0  0  0  0  0  0  0
   21.9950   47.3276   60.1786 O   0  0  0  0  0  0  0  0  0  0  0  0
   23.8795   47.1733   58.7486 C   0  0  0  0  0  0  0  0  0  0  0  0
   24.8506   46.7798   59.6633 C   0  0  0  0  0  0  0  0  0  0  0  0
   26.1920   46.9890   59.3631 C   0  0  0  0  0  0  0  0  0  0  0  0
   26.5201   47.5880   58.1515 C   0  0  0  0  0  0  0  0  0  0  0  0
   25.5654   47.9590   57.2855 N   0  0  0  0  0  0  0  0  0  0  0  0
   24.2644   47.7680   57.5515 C   0  0  0  0  0  0  0  0  0  0  0  0
   20.9954   44.4551   56.7507 C   0  0  0  0  0  0  0  0  0  0  0  0
   21.3701   43.4976   55.8134 C   0  0  0  0  0  0  0  0  0  0  0  0
   20.4432   42.5421   55.3796 N   0  0  0  0  0  0  0  0  0  0  0  0
   20.0492   42.4091   54.0069 C   0  0  0  0  0  0  0  0  0  0  0  0
   20.1523   43.4733   53.1973 N   0  0  0  0  0  0  0  0  0  0  0  0
   19.7987   43.4071   51.9053 C   0  0  0  0  0  0  0  0  0  0  0  0
   19.3136   42.2105   51.3877 C   0  0  0  0  0  0  0  0  0  0  0  0
   19.2101   41.1125   52.2349 C   0  0  0  0  0  0  0  0  0  0  0  0
   18.7045   39.8597   51.7027 C   0  0  0  0  0  0  0  0  0  0  0  0
   19.2475   39.3464   50.5296 C   0  0  0  0  0  0  0  0  0  0  0  0
   18.7612   38.1460   50.0237 C   0  0  0  0  0  0  0  0  0  0  0  0
   17.7426   37.4948   50.7113 C   0  0  0  0  0  0  0  0  0  0  0  0
   17.2350   38.0100   51.8409 N   0  0  0  0  0  0  0  0  0  0  0  0
   17.6869   39.1662   52.3495 C   0  0  0  0  0  0  0  0  0  0  0  0
   19.5821   41.2488   53.5182 N   0  0  0  0  0  0  0  0  0  0  0  0
   22.3295   41.8480   54.0759 H   0  0  0  0  0  0  0  0  0  0  0  0
   23.3916   42.9157   53.4445 H   0  0  0  0  0  0  0  0  0  0  0  0
   23.8568   41.9168   54.6497 H   0  0  0  0  0  0  0  0  0  0  0  0
   24.5223   44.4261   55.3655 H   0  0  0  0  0  0  0  0  0  0  0  0
   23.8868   46.0788   56.9797 H   0  0  0  0  0  0  0  0  0  0  0  0
   20.5914   46.6528   58.1293 H   0  0  0  0  0  0  0  0  0  0  0  0
   24.5869   46.3512   60.5274 H   0  0  0  0  0  0  0  0  0  0  0  0
   26.9070   46.7140   60.0058 H   0  0  0  0  0  0  0  0  0  0  0  0
   27.4810   47.7442   57.9229 H   0  0  0  0  0  0  0  0  0  0  0  0
   23.5715   48.0530   56.8892 H   0  0  0  0  0  0  0  0  0  0  0  0
   20.0654   44.4654   57.1180 H   0  0  0  0  0  0  0  0  0  0  0  0
   20.0385   41.9263   56.0556 H   0  0  0  0  0  0  0  0  0  0  0  0
   19.8830   44.2122   51.3182 H   0  0  0  0  0  0  0  0  0  0  0  0
   19.0451   42.1413   50.4270 H   0  0  0  0  0  0  0  0  0  0  0  0
   19.9795   39.8353   50.0552 H   0  0  0  0  0  0  0  0  0  0  0  0
   19.1367   37.7583   49.1819 H   0  0  0  0  0  0  0  0  0  0  0  0
   17.3837   36.6307   50.3586 H   0  0  0  0  0  0  0  0  0  0  0  0
   17.2923   39.5294   53.1935 H   0  0  0  0  0  0  0  0  0  0  0  0
  1  2  1  0  0  0  0
  2  3  2  0  0  0  0
  3  4  1  0  0  0  0
  4  5  2  0  0  0  0
  5  6  1  0  0  0  0
  6  7  1  0  0  0  0
  7  8  2  0  0  0  0
  7  9  1  0  0  0  0
  9 10  2  0  0  0  0
 10 11  1  0  0  0  0
 11 12  2  0  0  0  0
 12 13  1  0  0  0  0
 13 14  2  0  0  0  0
  5 15  1  0  0  0  0
 15 16  2  0  0  0  0
 16 17  1  0  0  0  0
 17 18  1  0  0  0  0
 18 19  2  0  0  0  0
 19 20  1  0  0  0  0
 20 21  2  0  0  0  0
 21 22  1  0  0  0  0
 22 23  1  0  0  0  0
 23 24  2  0  0  0  0
 24 25  1  0  0  0  0
 25 26  2  0  0  0  0
 26 27  1  0  0  0  0
 27 28  2  0  0  0  0
 22 29  2  0  0  0  0
 16  2  1  0  0  0  0
 29 18  1  0  0  0  0
 14  9  1  0  0  0  0
 28 23  1  0  0  0  0
  1 30  1  0  0  0  0
  1 31  1  0  0  0  0
  1 32  1  0  0  0  0
  3 33  1  0  0  0  0
  4 34  1  0  0  0  0
  6 35  1  0  0  0  0
 10 36  1  0  0  0  0
 11 37  1  0  0  0  0
 12 38  1  0  0  0  0
 14 39  1  0  0  0  0
 15 40  1  0  0  0  0
 17 41  1  0  0  0  0
 20 42  1  0  0  0  0
 21 43  1  0  0  0  0
 24 44  1  0  0  0  0
 25 45  1  0  0  0  0
 26 46  1  0  0  0  0
 28 47  1  0  0  0  0
M  END
>  <docking-score>
-19.85

$$$$
6HD6_FYH_1
foFlexX   03222115283D 1   1.00000     0.00000     0
FlexX 4.5.0 fol007
 47 49  0  0  0  0            999 V2000
   19.2840   44.5271   53.5770 O   0  0  0  0  0  0  0  0  0  0  0  0
   19.8084   43.7210   54.3936 C   0  0  0  0  0  0  0  0  0  0  0  0
   19.4734   42.3243   54.3307 N   0  0  0  0  0  0  0  0  0  0  0  0
   19.1059   41.6443   53.1178 C   0  0  0  0  0  0  0  0  0  0  0  0
   20.0031   41.6016   52.0552 C   0  0  0  0  0  0  0  0  0  0  0  0
   19.6563   40.9459   50.8779 C   0  0  0  0  0  0  0  0  0  0  0  0
   18.4083   40.3394   50.7809 C   0  0  0  0  0  0  0  0  0  0  0  0
   18.0596   39.7010   49.6443 O   0  0  0  0  0  0  0  0  0  0  0  0
   17.7194   38.3197   49.5462 C   0  0  0  0  0  0  0  0  0  0  0  0
   16.6219   38.0413   50.3413 F   0  0  0  0  0  0  0  0  0  0  0  0
   17.4458   37.9882   48.2313 F   0  0  0  0  0  0  0  0  0  0  0  0
   18.7890   37.5627   49.9830 F   0  0  0  0  0  0  0  0  0  0  0  0
   17.5043   40.3776   51.8383 C   0  0  0  0  0  0  0  0  0  0  0  0
   17.8595   41.0350   53.0116 C   0  0  0  0  0  0  0  0  0  0  0  0
   20.7024   44.2243   55.4181 C   0  0  0  0  0  0  0  0  0  0  0  0
   21.7468   45.0742   55.0687 C   0  0  0  0  0  0  0  0  0  0  0  0
   22.5946   45.5473   56.0652 C   0  0  0  0  0  0  0  0  0  0  0  0
   22.4101   45.1822   57.3948 C   0  0  0  0  0  0  0  0  0  0  0  0
   21.3588   44.3314   57.7217 C   0  0  0  0  0  0  0  0  0  0  0  0
   21.1483   43.9280   59.1644 C   0  0  0  0  0  0  0  0  0  0  0  0
   19.8272   44.3387   59.6621 N   0  3  0  0  0  0  0  0  0  0  0  0
   19.0429   43.1732   60.0954 C   0  0  0  0  0  0  0  0  0  0  0  0
   17.6419   43.6399   60.4611 C   0  0  0  0  0  0  0  0  0  0  0  0
   17.6161   45.0161   60.8266 O   0  0  0  0  0  0  0  0  0  0  0  0
   18.7517   45.3865   61.5979 C   0  0  0  0  0  0  0  0  0  0  0  0
   20.0348   45.2602   60.7901 C   0  0  0  0  0  0  0  0  0  0  0  0
   20.4992   43.8465   56.7412 C   0  0  0  0  0  0  0  0  0  0  0  0
   19.4972   41.7952   55.1790 H   0  0  0  0  0  0  0  0  0  0  0  0
   20.8970   42.0421   52.1376 H   0  0  0  0  0  0  0  0  0  0  0  0
   20.2967   40.9112   50.1106 H   0  0  0  0  0  0  0  0  0  0  0  0
   16.6101   39.9378   51.7556 H   0  0  0  0  0  0  0  0  0  0  0  0
   17.2190   41.0696   53.7788 H   0  0  0  0  0  0  0  0  0  0  0  0
   21.8861   45.3412   54.1151 H   0  0  0  0  0  0  0  0  0  0  0  0
   23.3476   46.1587   55.8220 H   0  0  0  0  0  0  0  0  0  0  0  0
   23.0241   45.5262   58.1052 H   0  0  0  0  0  0  0  0  0  0  0  0
   21.8538   44.3593   59.7268 H   0  0  0  0  0  0  0  0  0  0  0  0
   21.2261   42.9337   59.2366 H   0  0  0  0  0  0  0  0  0  0  0  0
   19.3344   44.8150   58.9340 H   0  0  0  0  0  0  0  0  0  0  0  0
   19.4767   42.7526   60.8922 H   0  0  0  0  0  0  0  0  0  0  0  0
   18.9925   42.5059   59.3523 H   0  0  0  0  0  0  0  0  0  0  0  0
   17.0405   43.5036   59.6739 H   0  0  0  0  0  0  0  0  0  0  0  0
   17.3110   43.0950   61.2316 H   0  0  0  0  0  0  0  0  0  0  0  0
   18.8106   44.7896   62.3981 H   0  0  0  0  0  0  0  0  0  0  0  0
   18.6470   46.3350   61.8967 H   0  0  0  0  0  0  0  0  0  0  0  0
   20.2960   46.1597   60.4397 H   0  0  0  0  0  0  0  0  0  0  0  0
   20.7630   44.9069   61.3773 H   0  0  0  0  0  0  0  0  0  0  0  0
   19.7460   43.2352   56.9842 H   0  0  0  0  0  0  0  0  0  0  0  0
  1  2  2  0  0  0  0
  2  3  1  0  0  0  0
  3  4  1  0  0  0  0
  4  5  2  0  0  0  0
  5  6  1  0  0  0  0
  6  7  2  0  0  0  0
  7  8  1  0  0  0  0
  8  9  1  0  0  0  0
  9 10  1  0  0  0  0
  9 11  1  0  0  0  0
  9 12  1  0  0  0  0
  7 13  1  0  0  0  0
 13 14  2  0  0  0  0
  2 15  1  0  0  0  0
 15 16  2  0  0  0  0
 16 17  1  0  0  0  0
 17 18  2  0  0  0  0
 18 19  1  0  0  0  0
 19 20  1  0  0  0  0
 20 21  1  0  0  0  0
 21 22  1  0  0  0  0
 22 23  1  0  0  0  0
 23 24  1  0  0  0  0
 24 25  1  0  0  0  0
 25 26  1  0  0  0  0
 19 27  2  0  0  0  0
 14  4  1  0  0  0  0
 27 15  1  0  0  0  0
 26 21  1  0  0  0  0
  3 28  1  0  0  0  0
  5 29  1  0  0  0  0
  6 30  1  0  0  0  0
 13 31  1  0  0  0  0
 14 32  1  0  0  0  0
 16 33  1  0  0  0  0
 17 34  1  0  0  0  0
 18 35  1  0  0  0  0
 20 36  1  0  0  0  0
 20 37  1  0  0  0  0
 21 38  1  0  0  0  0
 22 39  1  0  0  0  0
 22 40  1  0  0  0  0
 23 41  1  0  0  0  0
 23 42  1  0  0  0  0
 25 43  1  0  0  0  0
 25 44  1  0  0  0  0
 26 45  1  0  0  0  0
 26 46  1  0  0  0  0
 27 47  1  0  0  0  0
M  CHG  1  21   1
M  END
>  <docking-score>
-21.45

$$$$
6HD6_FYH_2
foFlexX   03222115283D 1   1.00000     0.00000     0
FlexX 4.5.0 fol007
 47 49  0  0  0  0            999 V2000
   19.3782   44.2961   53.3168 O   0  0  0  0  0  0  0  0  0  0  0  0
   19.8727   43.4914   54.1533 C   0  0  0  0  0  0  0  0  0  0  0  0
   19.4852   42.1072   54.1254 N   0  0  0  0  0  0  0  0  0  0  0  0
   19.0911   41.4115   52.9299 C   0  0  0  0  0  0  0  0  0  0  0  0
   19.9850   41.3084   51.8686 C   0  0  0  0  0  0  0  0  0  0  0  0
   19.6125   40.6371   50.7081 C   0  0  0  0  0  0  0  0  0  0  0  0
   18.3425   40.0759   50.6263 C   0  0  0  0  0  0  0  0  0  0  0  0
   17.9688   39.4230   49.5060 O   0  0  0  0  0  0  0  0  0  0  0  0
   17.5766   38.0535   49.4425 C   0  0  0  0  0  0  0  0  0  0  0  0
   16.4702   37.8366   50.2444 F   0  0  0  0  0  0  0  0  0  0  0  0
   17.2895   37.6998   48.1364 F   0  0  0  0  0  0  0  0  0  0  0  0
   18.6174   37.2677   49.8981 F   0  0  0  0  0  0  0  0  0  0  0  0
   17.4416   40.1746   51.6825 C   0  0  0  0  0  0  0  0  0  0  0  0
   17.8225   40.8472   52.8389 C   0  0  0  0  0  0  0  0  0  0  0  0
   20.7860   43.9861   55.1648 C   0  0  0  0  0  0  0  0  0  0  0  0
   21.8614   44.7870   54.7943 C   0  0  0  0  0  0  0  0  0  0  0  0
   22.7274   45.2525   55.7786 C   0  0  0  0  0  0  0  0  0  0  0  0
   22.5307   44.9280   57.1169 C   0  0  0  0  0  0  0  0  0  0  0  0
   21.4483   44.1259   57.4650 C   0  0  0  0  0  0  0  0  0  0  0  0
   21.2241   43.7669   58.9174 C   0  0  0  0  0  0  0  0  0  0  0  0
   19.9204   44.2392   59.4045 N   0  3  0  0  0  0  0  0  0  0  0  0
   20.1563   45.1641   60.5227 C   0  0  0  0  0  0  0  0  0  0  0  0
   18.8588   45.3960   61.2810 C   0  0  0  0  0  0  0  0  0  0  0  0
   17.7254   45.0325   60.5018 O   0  0  0  0  0  0  0  0  0  0  0  0
   17.6952   43.6476   60.1765 C   0  0  0  0  0  0  0  0  0  0  0  0
   19.0787   43.1155   59.8403 C   0  0  0  0  0  0  0  0  0  0  0  0
   20.5700   43.6494   56.4970 C   0  0  0  0  0  0  0  0  0  0  0  0
   19.4898   41.5990   54.9866 H   0  0  0  0  0  0  0  0  0  0  0  0
   20.8950   41.7168   51.9399 H   0  0  0  0  0  0  0  0  0  0  0  0
   20.2504   40.5591   49.9419 H   0  0  0  0  0  0  0  0  0  0  0  0
   16.5313   39.7669   51.6109 H   0  0  0  0  0  0  0  0  0  0  0  0
   17.1845   40.9252   53.6050 H   0  0  0  0  0  0  0  0  0  0  0  0
   22.0098   45.0246   53.8343 H   0  0  0  0  0  0  0  0  0  0  0  0
   23.5027   45.8288   55.5202 H   0  0  0  0  0  0  0  0  0  0  0  0
   23.1579   45.2662   57.8185 H   0  0  0  0  0  0  0  0  0  0  0  0
   21.9460   44.1851   59.4688 H   0  0  0  0  0  0  0  0  0  0  0  0
   21.2644   42.7724   59.0144 H   0  0  0  0  0  0  0  0  0  0  0  0
   19.4547   44.7296   58.6679 H   0  0  0  0  0  0  0  0  0  0  0  0
   20.4936   46.0358   60.1672 H   0  0  0  0  0  0  0  0  0  0  0  0
   20.8366   44.7707   61.1411 H   0  0  0  0  0  0  0  0  0  0  0  0
   18.8682   44.8463   62.1163 H   0  0  0  0  0  0  0  0  0  0  0  0
   18.7912   46.3646   61.5201 H   0  0  0  0  0  0  0  0  0  0  0  0
   17.0963   43.5137   59.3869 H   0  0  0  0  0  0  0  0  0  0  0  0
   17.3343   43.1394   60.9585 H   0  0  0  0  0  0  0  0  0  0  0  0
   19.4809   42.6874   60.6496 H   0  0  0  0  0  0  0  0  0  0  0  0
   19.0107   42.4407   59.1054 H   0  0  0  0  0  0  0  0  0  0  0  0
   19.7945   43.0733   56.7553 H   0  0  0  0  0  0  0  0  0  0  0  0
  1  2  2  0  0  0  0
  2  3  1  0  0  0  0
  3  4  1  0  0  0  0
  4  5  2  0  0  0  0
  5  6  1  0  0  0  0
  6  7  2  0  0  0  0
  7  8  1  0  0  0  0
  8  9  1  0  0  0  0
  9 10  1  0  0  0  0
  9 11  1  0  0  0  0
  9 12  1  0  0  0  0
  7 13  1  0  0  0  0
 13 14  2  0  0  0  0
  2 15  1  0  0  0  0
 15 16  2  0  0  0  0
 16 17  1  0  0  0  0
 17 18  2  0  0  0  0
 18 19  1  0  0  0  0
 19 20  1  0  0  0  0
 20 21  1  0  0  0  0
 21 22  1  0  0  0  0
 22 23  1  0  0  0  0
 23 24  1  0  0  0  0
 24 25  1  0  0  0  0
 25 26  1  0  0  0  0
 19 27  2  0  0  0  0
 14  4  1  0  0  0  0
 27 15  1  0  0  0  0
 26 21  1  0  0  0  0
  3 28  1  0  0  0  0
  5 29  1  0  0  0  0
  6 30  1  0  0  0  0
 13 31  1  0  0  0  0
 14 32  1  0  0  0  0
 16 33  1  0  0  0  0
 17 34  1  0  0  0  0
 18 35  1  0  0  0  0
 20 36  1  0  0  0  0
 20 37  1  0  0  0  0
 21 38  1  0  0  0  0
 22 39  1  0  0  0  0
 22 40  1  0  0  0  0
 23 41  1  0  0  0  0
 23 42  1  0  0  0  0
 25 43  1  0  0  0  0
 25 44  1  0  0  0  0
 26 45  1  0  0  0  0
 26 46  1  0  0  0  0
 27 47  1  0  0  0  0
M  CHG  1  21   1
M  END
>  <docking-score>
-20.62

$$$$
6HD6_FYH_3
foFlexX   03222115283D 1   1.00000     0.00000     0
FlexX 4.5.0 fol007
 47 49  0  0  0  0            999 V2000
   20.3446   44.3121   53.0977 O   0  0  0  0  0  0  0  0  0  0  0  0
   20.6209   43.6007   54.1023 C   0  0  0  0  0  0  0  0  0  0  0  0
   19.8192   42.4446   54.3989 N   0  0  0  0  0  0  0  0  0  0  0  0
   19.1437   41.6625   53.3986 C   0  0  0  0  0  0  0  0  0  0  0  0
   19.4513   40.3129   53.2583 C   0  0  0  0  0  0  0  0  0  0  0  0
   18.8027   39.5483   52.2934 C   0  0  0  0  0  0  0  0  0  0  0  0
   17.8503   40.1500   51.4776 C   0  0  0  0  0  0  0  0  0  0  0  0
   17.2148   39.4196   50.5376 O   0  0  0  0  0  0  0  0  0  0  0  0
   17.8477   38.7365   49.4577 C   0  0  0  0  0  0  0  0  0  0  0  0
   18.7431   37.8009   49.9446 F   0  0  0  0  0  0  0  0  0  0  0  0
   16.8993   38.1147   48.6656 F   0  0  0  0  0  0  0  0  0  0  0  0
   18.5370   39.6544   48.6893 F   0  0  0  0  0  0  0  0  0  0  0  0
   17.5367   41.4994   51.6104 C   0  0  0  0  0  0  0  0  0  0  0  0
   18.1896   42.2560   52.5779 C   0  0  0  0  0  0  0  0  0  0  0  0
   21.7124   43.9901   54.9735 C   0  0  0  0  0  0  0  0  0  0  0  0
   21.5804   43.8537   56.3516 C   0  0  0  0  0  0  0  0  0  0  0  0
   22.6383   44.2325   57.1720 C   0  0  0  0  0  0  0  0  0  0  0  0
   23.8153   44.7417   56.6331 C   0  0  0  0  0  0  0  0  0  0  0  0
   23.9257   44.8692   55.2519 C   0  0  0  0  0  0  0  0  0  0  0  0
   25.2012   45.4212   54.6546 C   0  0  0  0  0  0  0  0  0  0  0  0
   25.4638   44.8713   53.3172 N   0  3  0  0  0  0  0  0  0  0  0  0
   26.7559   44.1712   53.3548 C   0  0  0  0  0  0  0  0  0  0  0  0
   27.2356   43.9002   51.9374 C   0  0  0  0  0  0  0  0  0  0  0  0
   26.1708   43.9910   50.9985 O   0  0  0  0  0  0  0  0  0  0  0  0
   25.5998   45.2925   50.9293 C   0  0  0  0  0  0  0  0  0  0  0  0
   25.4886   45.9348   52.3025 C   0  0  0  0  0  0  0  0  0  0  0  0
   22.8803   44.4965   54.4130 C   0  0  0  0  0  0  0  0  0  0  0  0
   19.7259   42.1685   55.3554 H   0  0  0  0  0  0  0  0  0  0  0  0
   20.1384   39.8924   53.8508 H   0  0  0  0  0  0  0  0  0  0  0  0
   19.0189   38.5776   52.1877 H   0  0  0  0  0  0  0  0  0  0  0  0
   16.8501   41.9200   51.0174 H   0  0  0  0  0  0  0  0  0  0  0  0
   17.9734   43.2266   52.6835 H   0  0  0  0  0  0  0  0  0  0  0  0
   20.7375   43.4886   56.7468 H   0  0  0  0  0  0  0  0  0  0  0  0
   22.5512   44.1374   58.1637 H   0  0  0  0  0  0  0  0  0  0  0  0
   24.5710   45.0122   57.2295 H   0  0  0  0  0  0  0  0  0  0  0  0
   25.9662   45.1892   55.2553 H   0  0  0  0  0  0  0  0  0  0  0  0
   25.1216   46.4156   54.5852 H   0  0  0  0  0  0  0  0  0  0  0  0
   24.7441   44.2165   53.0863 H   0  0  0  0  0  0  0  0  0  0  0  0
   26.6496   43.3038   53.8409 H   0  0  0  0  0  0  0  0  0  0  0  0
   27.4278   44.7394   53.8299 H   0  0  0  0  0  0  0  0  0  0  0  0
   27.9374   44.5713   51.6984 H   0  0  0  0  0  0  0  0  0  0  0  0
   27.6264   42.9806   51.8972 H   0  0  0  0  0  0  0  0  0  0  0  0
   24.6859   45.2241   50.5292 H   0  0  0  0  0  0  0  0  0  0  0  0
   26.1757   45.8680   50.3486 H   0  0  0  0  0  0  0  0  0  0  0  0
   26.2751   46.5321   52.4597 H   0  0  0  0  0  0  0  0  0  0  0  0
   24.6465   46.4714   52.3562 H   0  0  0  0  0  0  0  0  0  0  0  0
   22.9673   44.5914   53.4213 H   0  0  0  0  0  0  0  0  0  0  0  0
  1  2  2  0  0  0  0
  2  3  1  0  0  0  0
  3  4  1  0  0  0  0
  4  5  2  0  0  0  0
  5  6  1  0  0  0  0
  6  7  2  0  0  0  0
  7  8  1  0  0  0  0
  8  9  1  0  0  0  0
  9 10  1  0  0  0  0
  9 11  1  0  0  0  0
  9 12  1  0  0  0  0
  7 13  1  0  0  0  0
 13 14  2  0  0  0  0
  2 15  1  0  0  0  0
 15 16  2  0  0  0  0
 16 17  1  0  0  0  0
 17 18  2  0  0  0  0
 18 19  1  0  0  0  0
 19 20  1  0  0  0  0
 20 21  1  0  0  0  0
 21 22  1  0  0  0  0
 22 23  1  0  0  0  0
 23 24  1  0  0  0  0
 24 25  1  0  0  0  0
 25 26  1  0  0  0  0
 19 27  2  0  0  0  0
 14  4  1  0  0  0  0
 27 15  1  0  0  0  0
 26 21  1  0  0  0  0
  3 28  1  0  0  0  0
  5 29  1  0  0  0  0
  6 30  1  0  0  0  0
 13 31  1  0  0  0  0
 14 32  1  0  0  0  0
 16 33  1  0  0  0  0
 17 34  1  0  0  0  0
 18 35  1  0  0  0  0
 20 36  1  0  0  0  0
 20 37  1  0  0  0  0
 21 38  1  0  0  0  0
 22 39  1  0  0  0  0
 22 40  1  0  0  0  0
 23 41  1  0  0  0  0
 23 42  1  0  0  0  0
 25 43  1  0  0  0  0
 25 44  1  0  0  0  0
 26 45  1  0  0  0  0
 26 46  1  0  0  0  0
 27 47  1  0  0  0  0
M  CHG  1  21   1
M  END
>  <docking-score>
-18.90

$$$$
6HD4_FYW_1
foFlexX   03222115283D 1   1.00000     0.00000     0
FlexX 4.5.0 fol007
 50 53  0  0  0  0            999 V2000
   28.9230   45.2275   58.1634 O   0  0  0  0  0  0  0  0  0  0  0  0
   28.1724   44.6713   57.3172 C   0  0  0  0  0  0  0  0  0  0  0  0
   28.6956   44.3914   56.0077 N   0  0  0  0  0  0  0  0  0  0  0  0
   27.9049   44.3580   54.8063 C   0  0  0  0  0  0  0  0  0  0  0  0
   27.2123   45.4970   54.4077 C   0  0  0  0  0  0  0  0  0  0  0  0
   26.4451   45.4741   53.2470 C   0  0  0  0  0  0  0  0  0  0  0  0
   26.3817   44.3037   52.4981 C   0  0  0  0  0  0  0  0  0  0  0  0
   25.6406   44.2683   51.3710 O   0  0  0  0  0  0  0  0  0  0  0  0
   25.8361   45.1015   50.2305 C   0  0  0  0  0  0  0  0  0  0  0  0
   27.1028   44.9064   49.7091 F   0  0  0  0  0  0  0  0  0  0  0  0
   25.7111   46.4226   50.6140 F   0  0  0  0  0  0  0  0  0  0  0  0
   24.8818   44.8243   49.2682 F   0  0  0  0  0  0  0  0  0  0  0  0
   27.0706   43.1595   52.8895 C   0  0  0  0  0  0  0  0  0  0  0  0
   27.8353   43.1915   54.0509 C   0  0  0  0  0  0  0  0  0  0  0  0
   26.8246   44.2979   57.7024 C   0  0  0  0  0  0  0  0  0  0  0  0
   26.5453   43.7557   58.9528 C   0  0  0  0  0  0  0  0  0  0  0  0
   25.2930   43.4162   59.2937 N   0  0  0  0  0  0  0  0  0  0  0  0
   24.2664   43.5848   58.4468 C   0  0  0  0  0  0  0  0  0  0  0  0
   22.9724   43.2198   58.8347 N   0  0  0  0  0  0  0  0  0  0  0  0
   22.6470   42.1408   59.7707 C   0  0  0  0  0  0  0  0  0  0  0  0
   21.3109   42.6079   60.3207 C   0  0  0  0  0  0  0  0  0  0  0  0
   20.6183   43.1201   59.0787 C   0  0  1  0  0  0  0  0  0  0  0  0
   19.5764   43.9976   59.4149 O   0  0  0  0  0  0  0  0  0  0  0  0
   21.7349   43.8530   58.3683 C   0  0  0  0  0  0  0  0  0  0  0  0
   24.4881   44.1225   57.1826 C   0  0  0  0  0  0  0  0  0  0  0  0
   23.4035   44.3192   56.2403 C   0  0  0  0  0  0  0  0  0  0  0  0
   22.9648   45.5976   55.9128 C   0  0  0  0  0  0  0  0  0  0  0  0
   21.9622   45.7579   55.0373 N   0  0  0  0  0  0  0  0  0  0  0  0
   21.3648   44.7023   54.4643 C   0  0  0  0  0  0  0  0  0  0  0  0
   21.7698   43.4592   54.7628 N   0  0  0  0  0  0  0  0  0  0  0  0
   22.7681   43.2434   55.6301 C   0  0  0  0  0  0  0  0  0  0  0  0
   25.7775   44.4827   56.8056 C   0  0  0  0  0  0  0  0  0  0  0  0
   29.6752   44.2075   55.9265 H   0  0  0  0  0  0  0  0  0  0  0  0
   27.2659   46.3320   54.9553 H   0  0  0  0  0  0  0  0  0  0  0  0
   25.9453   46.2894   52.9547 H   0  0  0  0  0  0  0  0  0  0  0  0
   27.0164   42.3243   52.3422 H   0  0  0  0  0  0  0  0  0  0  0  0
   28.3351   42.3762   54.3431 H   0  0  0  0  0  0  0  0  0  0  0  0
   27.2888   43.6170   59.6070 H   0  0  0  0  0  0  0  0  0  0  0  0
   23.3334   42.0655   60.4940 H   0  0  0  0  0  0  0  0  0  0  0  0
   22.5612   41.2627   59.3000 H   0  0  0  0  0  0  0  0  0  0  0  0
   20.8037   41.8512   60.7331 H   0  0  0  0  0  0  0  0  0  0  0  0
   21.4309   43.3359   60.9957 H   0  0  0  0  0  0  0  0  0  0  0  0
   20.2794   42.3618   58.5218 H   0  0  0  0  0  0  0  0  0  0  0  0
   19.2092   44.4133   58.5828 H   0  0  0  0  0  0  0  0  0  0  0  0
   21.6433   43.7549   57.3774 H   0  0  0  0  0  0  0  0  0  0  0  0
   21.7258   44.8235   58.6094 H   0  0  0  0  0  0  0  0  0  0  0  0
   23.3971   46.3970   56.3301 H   0  0  0  0  0  0  0  0  0  0  0  0
   20.6176   44.8424   53.8147 H   0  0  0  0  0  0  0  0  0  0  0  0
   23.0561   42.3088   55.8386 H   0  0  0  0  0  0  0  0  0  0  0  0
   25.9499   44.8701   55.9000 H   0  0  0  0  0  0  0  0  0  0  0  0
  1  2  2  0  0  0  0
  2  3  1  0  0  0  0
  3  4  1  0  0  0  0
  4  5  2  0  0  0  0
  5  6  1  0  0  0  0
  6  7  2  0  0  0  0
  7  8  1  0  0  0  0
  8  9  1  0  0  0  0
  9 10  1  0  0  0  0
  9 11  1  0  0  0  0
  9 12  1  0  0  0  0
  7 13  1  0  0  0  0
 13 14  2  0  0  0  0
  2 15  1  0  0  0  0
 15 16  2  0  0  0  0
 16 17  1  0  0  0  0
 17 18  2  0  0  0  0
 18 19  1  0  0  0  0
 19 20  1  0  0  0  0
 20 21  1  0  0  0  0
 21 22  1  0  0  0  0
 22 23  1  0  0  0  0
 22 24  1  0  0  0  0
 18 25  1  0  0  0  0
 25 26  1  0  0  0  0
 26 27  2  0  0  0  0
 27 28  1  0  0  0  0
 28 29  2  0  0  0  0
 29 30  1  0  0  0  0
 30 31  2  0  0  0  0
 25 32  2  0  0  0  0
 14  4  1  0  0  0  0
 32 15  1  0  0  0  0
 24 19  1  0  0  0  0
 31 26  1  0  0  0  0
  3 33  1  0  0  0  0
  5 34  1  0  0  0  0
  6 35  1  0  0  0  0
 13 36  1  0  0  0  0
 14 37  1  0  0  0  0
 16 38  1  0  0  0  0
 20 39  1  0  0  0  0
 20 40  1  0  0  0  0
 21 41  1  0  0  0  0
 21 42  1  0  0  0  0
 22 43  1  0  0  0  0
 23 44  1  0  0  0  0
 24 45  1  0  0  0  0
 24 46  1  0  0  0  0
 27 47  1  0  0  0  0
 29 48  1  0  0  0  0
 31 49  1  0  0  0  0
 32 50  1  0  0  0  0
M  END
>  <docking-score>
-12.76

$$$$
6HD4_FYW_2
foFlexX   03222115283D 1   1.00000     0.00000     0
FlexX 4.5.0 fol007
 50 53  0  0  0  0            999 V2000
   23.6454   49.1493   58.7837 O   0  0  0  0  0  0  0  0  0  0  0  0
   23.3254   47.9313   58.8349 C   0  0  0  0  0  0  0  0  0  0  0  0
   22.5522   47.4663   59.9541 N   0  0  0  0  0  0  0  0  0  0  0  0
   22.6207   46.1337   60.4922 C   0  0  0  0  0  0  0  0  0  0  0  0
   23.4816   45.2041   59.9174 C   0  0  0  0  0  0  0  0  0  0  0  0
   23.5547   43.9130   60.4312 C   0  0  0  0  0  0  0  0  0  0  0  0
   22.7593   43.5692   61.5192 C   0  0  0  0  0  0  0  0  0  0  0  0
   22.8203   42.3202   62.0264 O   0  0  0  0  0  0  0  0  0  0  0  0
   22.0107   41.2224   61.6107 C   0  0  0  0  0  0  0  0  0  0  0  0
   22.2137   40.9623   60.2670 F   0  0  0  0  0  0  0  0  0  0  0  0
   20.6822   41.5462   61.8059 F   0  0  0  0  0  0  0  0  0  0  0  0
   22.3104   40.0986   62.3596 F   0  0  0  0  0  0  0  0  0  0  0  0
   21.8948   44.4923   62.1002 C   0  0  0  0  0  0  0  0  0  0  0  0
   21.8285   45.7808   61.5803 C   0  0  0  0  0  0  0  0  0  0  0  0
   23.7119   47.0506   57.7487 C   0  0  0  0  0  0  0  0  0  0  0  0
   24.9582   47.1467   57.1379 C   0  0  0  0  0  0  0  0  0  0  0  0
   25.3005   46.3240   56.1351 N   0  0  0  0  0  0  0  0  0  0  0  0
   24.4588   45.3818   55.6838 C   0  0  0  0  0  0  0  0  0  0  0  0
   24.8481   44.5403   54.6357 N   0  0  0  0  0  0  0  0  0  0  0  0
   24.3894   43.1617   54.4483 C   0  0  0  0  0  0  0  0  0  0  0  0
   24.5346   42.9944   52.9460 C   0  0  0  0  0  0  0  0  0  0  0  0
   25.8596   43.6706   52.6782 C   0  0  1  0  0  0  0  0  0  0  0  0
   25.9719   44.0296   51.3265 O   0  0  0  0  0  0  0  0  0  0  0  0
   25.7768   44.8979   53.5589 C   0  0  0  0  0  0  0  0  0  0  0  0
   23.1990   45.2413   56.2577 C   0  0  0  0  0  0  0  0  0  0  0  0
   22.2625   44.2347   55.7963 C   0  0  0  0  0  0  0  0  0  0  0  0
   21.9485   43.1351   56.5876 C   0  0  0  0  0  0  0  0  0  0  0  0
   21.0782   42.2170   56.1436 N   0  0  0  0  0  0  0  0  0  0  0  0
   20.4976   42.3350   54.9402 C   0  0  0  0  0  0  0  0  0  0  0  0
   20.7829   43.3866   54.1584 N   0  0  0  0  0  0  0  0  0  0  0  0
   21.6446   44.3331   54.5546 C   0  0  0  0  0  0  0  0  0  0  0  0
   22.8207   46.0820   57.2991 C   0  0  0  0  0  0  0  0  0  0  0  0
   21.9244   48.1126   60.3879 H   0  0  0  0  0  0  0  0  0  0  0  0
   24.0479   45.4637   59.1351 H   0  0  0  0  0  0  0  0  0  0  0  0
   24.1718   43.2402   60.0230 H   0  0  0  0  0  0  0  0  0  0  0  0
   21.3281   44.2324   62.8820 H   0  0  0  0  0  0  0  0  0  0  0  0
   21.2115   46.4535   61.9886 H   0  0  0  0  0  0  0  0  0  0  0  0
   25.6084   47.8390   57.4510 H   0  0  0  0  0  0  0  0  0  0  0  0
   23.4387   43.0506   54.7378 H   0  0  0  0  0  0  0  0  0  0  0  0
   24.9670   42.5140   54.9452 H   0  0  0  0  0  0  0  0  0  0  0  0
   24.5618   42.0283   52.6894 H   0  0  0  0  0  0  0  0  0  0  0  0
   23.7900   43.4485   52.4567 H   0  0  0  0  0  0  0  0  0  0  0  0
   26.6208   43.0843   52.9552 H   0  0  0  0  0  0  0  0  0  0  0  0
   26.7990   44.5760   51.1944 H   0  0  0  0  0  0  0  0  0  0  0  0
   26.6768   45.1220   53.9327 H   0  0  0  0  0  0  0  0  0  0  0  0
   25.4276   45.6783   53.0401 H   0  0  0  0  0  0  0  0  0  0  0  0
   22.3718   43.0292   57.4874 H   0  0  0  0  0  0  0  0  0  0  0  0
   19.8520   41.6390   54.6260 H   0  0  0  0  0  0  0  0  0  0  0  0
   21.8432   45.1102   53.9574 H   0  0  0  0  0  0  0  0  0  0  0  0
   21.9182   45.9911   57.7200 H   0  0  0  0  0  0  0  0  0  0  0  0
  1  2  2  0  0  0  0
  2  3  1  0  0  0  0
  3  4  1  0  0  0  0
  4  5  2  0  0  0  0
  5  6  1  0  0  0  0
  6  7  2  0  0  0  0
  7  8  1  0  0  0  0
  8  9  1  0  0  0  0
  9 10  1  0  0  0  0
  9 11  1  0  0  0  0
  9 12  1  0  0  0  0
  7 13  1  0  0  0  0
 13 14  2  0  0  0  0
  2 15  1  0  0  0  0
 15 16  2  0  0  0  0
 16 17  1  0  0  0  0
 17 18  2  0  0  0  0
 18 19  1  0  0  0  0
 19 20  1  0  0  0  0
 20 21  1  0  0  0  0
 21 22  1  0  0  0  0
 22 23  1  0  0  0  0
 22 24  1  0  0  0  0
 18 25  1  0  0  0  0
 25 26  1  0  0  0  0
 26 27  2  0  0  0  0
 27 28  1  0  0  0  0
 28 29  2  0  0  0  0
 29 30  1  0  0  0  0
 30 31  2  0  0  0  0
 25 32  2  0  0  0  0
 14  4  1  0  0  0  0
 32 15  1  0  0  0  0
 24 19  1  0  0  0  0
 31 26  1  0  0  0  0
  3 33  1  0  0  0  0
  5 34  1  0  0  0  0
  6 35  1  0  0  0  0
 13 36  1  0  0  0  0
 14 37  1  0  0  0  0
 16 38  1  0  0  0  0
 20 39  1  0  0  0  0
 20 40  1  0  0  0  0
 21 41  1  0  0  0  0
 21 42  1  0  0  0  0
 22 43  1  0  0  0  0
 23 44  1  0  0  0  0
 24 45  1  0  0  0  0
 24 46  1  0  0  0  0
 27 47  1  0  0  0  0
 29 48  1  0  0  0  0
 31 49  1  0  0  0  0
 32 50  1  0  0  0  0
M  END
>  <docking-score>
-11.69

$$$$
6HD4_FYW_3
foFlexX   03222115283D 1   1.00000     0.00000     0
FlexX 4.5.0 fol007
 50 53  0  0  0  0            999 V2000
   24.2000   49.2771   58.8116 O   0  0  0  0  0  0  0  0  0  0  0  0
   23.8538   48.1145   58.4697 C   0  0  0  0  0  0  0  0  0  0  0  0
   22.8670   47.4274   59.2576 N   0  0  0  0  0  0  0  0  0  0  0  0
   22.8037   45.9988   59.4161 C   0  0  0  0  0  0  0  0  0  0  0  0
   23.9740   45.2486   59.3590 C   0  0  0  0  0  0  0  0  0  0  0  0
   23.9225   43.8664   59.5112 C   0  0  0  0  0  0  0  0  0  0  0  0
   22.6922   43.2518   59.7191 C   0  0  0  0  0  0  0  0  0  0  0  0
   22.6286   41.9120   59.8675 O   0  0  0  0  0  0  0  0  0  0  0  0
   22.1281   41.2339   61.0177 C   0  0  0  0  0  0  0  0  0  0  0  0
   20.8058   41.5777   61.2359 F   0  0  0  0  0  0  0  0  0  0  0  0
   22.8733   41.6089   62.1186 F   0  0  0  0  0  0  0  0  0  0  0  0
   22.2385   39.8652   60.8498 F   0  0  0  0  0  0  0  0  0  0  0  0
   21.5164   43.9940   59.7770 C   0  0  0  0  0  0  0  0  0  0  0  0
   21.5773   45.3752   59.6241 C   0  0  0  0  0  0  0  0  0  0  0  0
   24.4302   47.5257   57.2756 C   0  0  0  0  0  0  0  0  0  0  0  0
   25.6194   47.9972   56.7290 C   0  0  0  0  0  0  0  0  0  0  0  0
   26.1396   47.4410   55.6245 N   0  0  0  0  0  0  0  0  0  0  0  0
   25.5364   46.4141   55.0069 C   0  0  0  0  0  0  0  0  0  0  0  0
   26.1087   45.8554   53.8520 N   0  0  0  0  0  0  0  0  0  0  0  0
   27.0937   44.7732   53.8187 C   0  0  0  0  0  0  0  0  0  0  0  0
   27.8235   45.0063   52.5111 C   0  0  0  0  0  0  0  0  0  0  0  0
   26.6748   45.3691   51.5929 C   0  0  1  0  0  0  0  0  0  0  0  0
   25.9621   44.2356   51.1736 O   0  0  0  0  0  0  0  0  0  0  0  0
   25.8452   46.2794   52.4778 C   0  0  0  0  0  0  0  0  0  0  0  0
   24.3442   45.9025   55.5099 C   0  0  0  0  0  0  0  0  0  0  0  0
   23.6635   44.7938   54.8692 C   0  0  0  0  0  0  0  0  0  0  0  0
   24.3492   43.6302   54.5377 C   0  0  0  0  0  0  0  0  0  0  0  0
   23.7008   42.6156   53.9480 N   0  0  0  0  0  0  0  0  0  0  0  0
   22.3919   42.6978   53.6663 C   0  0  0  0  0  0  0  0  0  0  0  0
   21.7079   43.8087   53.9766 N   0  0  0  0  0  0  0  0  0  0  0  0
   22.3074   44.8511   54.5678 C   0  0  0  0  0  0  0  0  0  0  0  0
   23.7849   46.4618   56.6539 C   0  0  0  0  0  0  0  0  0  0  0  0
   22.1782   47.9796   59.7273 H   0  0  0  0  0  0  0  0  0  0  0  0
   24.8522   45.7027   59.2085 H   0  0  0  0  0  0  0  0  0  0  0  0
   24.7601   43.3215   59.4717 H   0  0  0  0  0  0  0  0  0  0  0  0
   20.6382   43.5398   59.9268 H   0  0  0  0  0  0  0  0  0  0  0  0
   20.7397   45.9200   59.6637 H   0  0  0  0  0  0  0  0  0  0  0  0
   26.0934   48.7618   57.1656 H   0  0  0  0  0  0  0  0  0  0  0  0
   26.6447   43.8798   53.8241 H   0  0  0  0  0  0  0  0  0  0  0  0
   27.7210   44.8357   54.5951 H   0  0  0  0  0  0  0  0  0  0  0  0
   28.4820   45.7549   52.5874 H   0  0  0  0  0  0  0  0  0  0  0  0
   28.2931   44.1796   52.2012 H   0  0  0  0  0  0  0  0  0  0  0  0
   27.0142   45.8753   50.8001 H   0  0  0  0  0  0  0  0  0  0  0  0
   25.0373   44.2642   51.5528 H   0  0  0  0  0  0  0  0  0  0  0  0
   26.1193   47.2325   52.3497 H   0  0  0  0  0  0  0  0  0  0  0  0
   24.8734   46.1804   52.2640 H   0  0  0  0  0  0  0  0  0  0  0  0
   25.3255   43.5503   54.7390 H   0  0  0  0  0  0  0  0  0  0  0  0
   21.9263   41.9308   53.2249 H   0  0  0  0  0  0  0  0  0  0  0  0
   21.7795   45.6702   54.7921 H   0  0  0  0  0  0  0  0  0  0  0  0
   22.9285   46.1032   57.0253 H   0  0  0  0  0  0  0  0  0  0  0  0
  1  2  2  0  0  0  0
  2  3  1  0  0  0  0
  3  4  1  0  0  0  0
  4  5  2  0  0  0  0
  5  6  1  0  0  0  0
  6  7  2  0  0  0  0
  7  8  1  0  0  0  0
  8  9  1  0  0  0  0
  9 10  1  0  0  0  0
  9 11  1  0  0  0  0
  9 12  1  0  0  0  0
  7 13  1  0  0  0  0
 13 14  2  0  0  0  0
  2 15  1  0  0  0  0
 15 16  2  0  0  0  0
 16 17  1  0  0  0  0
 17 18  2  0  0  0  0
 18 19  1  0  0  0  0
 19 20  1  0  0  0  0
 20 21  1  0  0  0  0
 21 22  1  0  0  0  0
 22 23  1  0  0  0  0
 22 24  1  0  0  0  0
 18 25  1  0  0  0  0
 25 26  1  0  0  0  0
 26 27  2  0  0  0  0
 27 28  1  0  0  0  0
 28 29  2  0  0  0  0
 29 30  1  0  0  0  0
 30 31  2  0  0  0  0
 25 32  2  0  0  0  0
 14  4  1  0  0  0  0
 32 15  1  0  0  0  0
 24 19  1  0  0  0  0
 31 26  1  0  0  0  0
  3 33  1  0  0  0  0
  5 34  1  0  0  0  0
  6 35  1  0  0  0  0
 13 36  1  0  0  0  0
 14 37  1  0  0  0  0
 16 38  1  0  0  0  0
 20 39  1  0  0  0  0
 20 40  1  0  0  0  0
 21 41  1  0  0  0  0
 21 42  1  0  0  0  0
 22 43  1  0  0  0  0
 23 44  1  0  0  0  0
 24 45  1  0  0  0  0
 24 46  1  0  0  0  0
 27 47  1  0  0  0  0
 29 48  1  0  0  0  0
 31 49  1  0  0  0  0
 32 50  1  0  0  0  0
M  END
>  <docking-score>
-11.66

$$$$
2QOH_P3Y_1
foFlexX   03222115283D 1   1.00000     0.00000     0
FlexX 4.5.0 fol007
 48 51  0  0  0  0            999 V2000
   22.2236   41.0217   62.8933 C   0  0  0  0  0  0  0  0  0  0  0  0
   22.5385   42.2545   62.2559 O   0  0  0  0  0  0  0  0  0  0  0  0
   21.7259   42.8057   61.3289 C   0  0  0  0  0  0  0  0  0  0  0  0
   20.3580   42.5699   61.4175 C   0  0  0  0  0  0  0  0  0  0  0  0
   19.4942   43.1235   60.4778 C   0  0  0  0  0  0  0  0  0  0  0  0
   19.9984   43.9126   59.4493 C   0  0  0  0  0  0  0  0  0  0  0  0
   21.3666   44.1492   59.3604 C   0  0  0  0  0  0  0  0  0  0  0  0
   22.2303   43.5953   60.2999 C   0  0  0  0  0  0  0  0  0  0  0  0
   23.6573   43.8414   60.2070 C   0  0  0  0  0  0  0  0  0  0  0  0
   24.4815   44.0799   61.2667 C   0  0  0  0  0  0  0  0  0  0  0  0
   25.7353   44.2598   60.7621 N   0  0  0  0  0  0  0  0  0  0  0  0
   25.7048   44.1391   59.3932 C   0  0  0  0  0  0  0  0  0  0  0  0
   26.6313   44.2225   58.4245 N   0  0  0  0  0  0  0  0  0  0  0  0
   26.3276   44.0530   57.1275 C   0  0  0  0  0  0  0  0  0  0  0  0
   25.0268   43.7798   56.7127 C   0  0  0  0  0  0  0  0  0  0  0  0
   24.6572   43.5874   55.3239 C   0  0  0  0  0  0  0  0  0  0  0  0
   23.6007   42.7578   54.9630 C   0  0  0  0  0  0  0  0  0  0  0  0
   23.2730   42.5921   53.6727 N   0  0  0  0  0  0  0  0  0  0  0  0
   23.9463   43.2156   52.6945 C   0  0  0  0  0  0  0  0  0  0  0  0
   25.0114   44.0565   52.9990 C   0  0  0  0  0  0  0  0  0  0  0  0
   25.7687   44.7549   51.9337 C   0  0  0  0  0  0  0  0  0  0  0  0
   26.3597   44.0703   51.0536 O   0  0  0  0  0  0  0  0  0  0  0  0
   25.8609   46.1918   51.8864 N   0  0  0  0  0  0  0  0  0  0  0  0
   26.0184   46.9065   50.6173 C   0  0  0  0  0  0  0  0  0  0  0  0
   25.8531   46.9505   53.1373 C   0  0  0  0  0  0  0  0  0  0  0  0
   25.3719   44.2456   54.3289 C   0  0  0  0  0  0  0  0  0  0  0  0
   24.0427   43.6878   57.6882 C   0  0  0  0  0  0  0  0  0  0  0  0
   24.4155   43.8720   59.0135 C   0  0  0  0  0  0  0  0  0  0  0  0
   22.1471   40.3005   62.2048 H   0  0  0  0  0  0  0  0  0  0  0  0
   22.9476   40.7875   63.5422 H   0  0  0  0  0  0  0  0  0  0  0  0
   21.3550   41.1107   63.3807 H   0  0  0  0  0  0  0  0  0  0  0  0
   19.9953   42.0023   62.1568 H   0  0  0  0  0  0  0  0  0  0  0  0
   18.5108   42.9541   60.5418 H   0  0  0  0  0  0  0  0  0  0  0  0
   19.3775   44.3099   58.7736 H   0  0  0  0  0  0  0  0  0  0  0  0
   21.7290   44.7172   58.6214 H   0  0  0  0  0  0  0  0  0  0  0  0
   24.2169   44.1160   62.2304 H   0  0  0  0  0  0  0  0  0  0  0  0
   26.5529   44.4505   61.3054 H   0  0  0  0  0  0  0  0  0  0  0  0
   27.0531   44.1246   56.4431 H   0  0  0  0  0  0  0  0  0  0  0  0
   23.0807   42.2808   55.6715 H   0  0  0  0  0  0  0  0  0  0  0  0
   23.6810   43.0750   51.7406 H   0  0  0  0  0  0  0  0  0  0  0  0
   25.2382   46.7083   50.0240 H   0  0  0  0  0  0  0  0  0  0  0  0
   26.0629   47.8902   50.7919 H   0  0  0  0  0  0  0  0  0  0  0  0
   26.8616   46.6090   50.1696 H   0  0  0  0  0  0  0  0  0  0  0  0
   26.6295   46.6703   53.7019 H   0  0  0  0  0  0  0  0  0  0  0  0
   25.9233   47.9273   52.9352 H   0  0  0  0  0  0  0  0  0  0  0  0
   25.0013   46.7723   53.6299 H   0  0  0  0  0  0  0  0  0  0  0  0
   26.1348   44.8469   54.5664 H   0  0  0  0  0  0  0  0  0  0  0  0
   23.0926   43.4944   57.4434 H   0  0  0  0  0  0  0  0  0  0  0  0
  1  2  1  0  0  0  0
  2  3  1  0  0  0  0
  3  4  2  0  0  0  0
  4  5  1  0  0  0  0
  5  6  2  0  0  0  0
  6  7  1  0  0  0  0
  7  8  2  0  0  0  0
  8  9  1  0  0  0  0
  9 10  2  0  0  0  0
 10 11  1  0  0  0  0
 11 12  1  0  0  0  0
 12 13  2  0  0  0  0
 13 14  1  0  0  0  0
 14 15  2  0  0  0  0
 15 16  1  0  0  0  0
 16 17  2  0  0  0  0
 17 18  1  0  0  0  0
 18 19  2  0  0  0  0
 19 20  1  0  0  0  0
 20 21  1  0  0  0  0
 21 22  2  0  0  0  0
 21 23  1  0  0  0  0
 23 24  1  0  0  0  0
 23 25  1  0  0  0  0
 20 26  2  0  0  0  0
 15 27  1  0  0  0  0
 27 28  2  0  0  0  0
  8  3  1  0  0  0  0
 28  9  1  0  0  0  0
 28 12  1  0  0  0  0
 26 16  1  0  0  0  0
  1 29  1  0  0  0  0
  1 30  1  0  0  0  0
  1 31  1  0  0  0  0
  4 32  1  0  0  0  0
  5 33  1  0  0  0  0
  6 34  1  0  0  0  0
  7 35  1  0  0  0  0
 10 36  1  0  0  0  0
 11 37  1  0  0  0  0
 14 38  1  0  0  0  0
 17 39  1  0  0  0  0
 19 40  1  0  0  0  0
 24 41  1  0  0  0  0
 24 42  1  0  0  0  0
 24 43  1  0  0  0  0
 25 44  1  0  0  0  0
 25 45  1  0  0  0  0
 25 46  1  0  0  0  0
 26 47  1  0  0  0  0
 27 48  1  0  0  0  0
M  END
>  <docking-score>
-13.55

$$$$
2QOH_P3Y_2
foFlexX   03222115283D 1   1.00000     0.00000     0
FlexX 4.5.0 fol007
 48 51  0  0  0  0            999 V2000
   22.8552   46.6393   59.2817 C   0  0  0  0  0  0  0  0  0  0  0  0
   21.7387   45.7658   59.4062 O   0  0  0  0  0  0  0  0  0  0  0  0
   21.7266   44.7460   60.2914 C   0  0  0  0  0  0  0  0  0  0  0  0
   22.4502   44.8800   61.4717 C   0  0  0  0  0  0  0  0  0  0  0  0
   22.4580   43.8473   62.4040 C   0  0  0  0  0  0  0  0  0  0  0  0
   21.7425   42.6806   62.1558 C   0  0  0  0  0  0  0  0  0  0  0  0
   21.0182   42.5462   60.9755 C   0  0  0  0  0  0  0  0  0  0  0  0
   21.0107   43.5787   60.0431 C   0  0  0  0  0  0  0  0  0  0  0  0
   20.2558   43.4385   58.8119 C   0  0  0  0  0  0  0  0  0  0  0  0
   18.8985   43.3350   58.7328 C   0  0  0  0  0  0  0  0  0  0  0  0
   18.5853   43.2201   57.4108 N   0  0  0  0  0  0  0  0  0  0  0  0
   19.7355   43.2478   56.6587 C   0  0  0  0  0  0  0  0  0  0  0  0
   19.9969   43.1730   55.3434 N   0  0  0  0  0  0  0  0  0  0  0  0
   21.2474   43.2329   54.8580 C   0  0  0  0  0  0  0  0  0  0  0  0
   22.3493   43.3764   55.6969 C   0  0  0  0  0  0  0  0  0  0  0  0
   23.7146   43.4478   55.2139 C   0  0  0  0  0  0  0  0  0  0  0  0
   24.7800   42.9867   55.9801 C   0  0  0  0  0  0  0  0  0  0  0  0
   26.0366   43.0608   55.5165 N   0  0  0  0  0  0  0  0  0  0  0  0
   26.3071   43.5768   54.3083 C   0  0  0  0  0  0  0  0  0  0  0  0
   25.2797   44.0525   53.5006 C   0  0  0  0  0  0  0  0  0  0  0  0
   25.5565   44.6265   52.1626 C   0  0  0  0  0  0  0  0  0  0  0  0
   25.5625   43.8625   51.1582 O   0  0  0  0  0  0  0  0  0  0  0  0
   25.8341   46.0285   51.9815 N   0  0  0  0  0  0  0  0  0  0  0  0
   25.4951   46.7205   50.7356 C   0  0  0  0  0  0  0  0  0  0  0  0
   26.5202   46.7646   53.0437 C   0  0  0  0  0  0  0  0  0  0  0  0
   23.9677   43.9876   53.9574 C   0  0  0  0  0  0  0  0  0  0  0  0
   22.1159   43.4557   57.0636 C   0  0  0  0  0  0  0  0  0  0  0  0
   20.8016   43.3885   57.5081 C   0  0  0  0  0  0  0  0  0  0  0  0
   23.6649   46.1109   59.0264 H   0  0  0  0  0  0  0  0  0  0  0  0
   22.6669   47.3225   58.5761 H   0  0  0  0  0  0  0  0  0  0  0  0
   23.0184   47.0983   60.1550 H   0  0  0  0  0  0  0  0  0  0  0  0
   22.9649   45.7186   61.6502 H   0  0  0  0  0  0  0  0  0  0  0  0
   22.9780   43.9438   63.2526 H   0  0  0  0  0  0  0  0  0  0  0  0
   21.7487   41.9382   62.8258 H   0  0  0  0  0  0  0  0  0  0  0  0
   20.5031   41.7077   60.7975 H   0  0  0  0  0  0  0  0  0  0  0  0
   18.2554   43.3419   59.4985 H   0  0  0  0  0  0  0  0  0  0  0  0
   17.6594   43.1296   57.0441 H   0  0  0  0  0  0  0  0  0  0  0  0
   21.3907   43.1729   53.8701 H   0  0  0  0  0  0  0  0  0  0  0  0
   24.6076   42.5965   56.8846 H   0  0  0  0  0  0  0  0  0  0  0  0
   27.2529   43.6198   53.9865 H   0  0  0  0  0  0  0  0  0  0  0  0
   24.5092   46.6611   50.5789 H   0  0  0  0  0  0  0  0  0  0  0  0
   25.7645   47.6811   50.8038 H   0  0  0  0  0  0  0  0  0  0  0  0
   25.9802   46.2916   49.9735 H   0  0  0  0  0  0  0  0  0  0  0  0
   27.4165   46.3532   53.2089 H   0  0  0  0  0  0  0  0  0  0  0  0
   26.6371   47.7182   52.7664 H   0  0  0  0  0  0  0  0  0  0  0  0
   25.9758   46.7254   53.8816 H   0  0  0  0  0  0  0  0  0  0  0  0
   23.2164   44.3246   53.3900 H   0  0  0  0  0  0  0  0  0  0  0  0
   22.8725   43.5583   57.7094 H   0  0  0  0  0  0  0  0  0  0  0  0
  1  2  1  0  0  0  0
  2  3  1  0  0  0  0
  3  4  2  0  0  0  0
  4  5  1  0  0  0  0
  5  6  2  0  0  0  0
  6  7  1  0  0  0  0
  7  8  2  0  0  0  0
  8  9  1  0  0  0  0
  9 10  2  0  0  0  0
 10 11  1  0  0  0  0
 11 12  1  0  0  0  0
 12 13  2  0  0  0  0
 13 14  1  0  0  0  0
 14 15  2  0  0  0  0
 15 16  1  0  0  0  0
 16 17  2  0  0  0  0
 17 18  1  0  0  0  0
 18 19  2  0  0  0  0
 19 20  1  0  0  0  0
 20 21  1  0  0  0  0
 21 22  2  0  0  0  0
 21 23  1  0  0  0  0
 23 24  1  0  0  0  0
 23 25  1  0  0  0  0
 20 26  2  0  0  0  0
 15 27  1  0  0  0  0
 27 28  2  0  0  0  0
  8  3  1  0  0  0  0
 28  9  1  0  0  0  0
 28 12  1  0  0  0  0
 26 16  1  0  0  0  0
  1 29  1  0  0  0  0
  1 30  1  0  0  0  0
  1 31  1  0  0  0  0
  4 32  1  0  0  0  0
  5 33  1  0  0  0  0
  6 34  1  0  0  0  0
  7 35  1  0  0  0  0
 10 36  1  0  0  0  0
 11 37  1  0  0  0  0
 14 38  1  0  0  0  0
 17 39  1  0  0  0  0
 19 40  1  0  0  0  0
 24 41  1  0  0  0  0
 24 42  1  0  0  0  0
 24 43  1  0  0  0  0
 25 44  1  0  0  0  0
 25 45  1  0  0  0  0
 25 46  1  0  0  0  0
 26 47  1  0  0  0  0
 27 48  1  0  0  0  0
M  END
>  <docking-score>
-13.38

$$$$
2QOH_P3Y_3
foFlexX   03222115283D 1   1.00000     0.00000     0
FlexX 4.5.0 fol007
 48 51  0  0  0  0            999 V2000
   18.5496   45.3675   62.0660 C   0  0  0  0  0  0  0  0  0  0  0  0
   19.3662   45.0650   60.9405 O   0  0  0  0  0  0  0  0  0  0  0  0
   20.5308   44.3927   61.0648 C   0  0  0  0  0  0  0  0  0  0  0  0
   21.2547   44.5270   62.2449 C   0  0  0  0  0  0  0  0  0  0  0  0
   22.4583   43.8474   62.4038 C   0  0  0  0  0  0  0  0  0  0  0  0
   22.9380   43.0339   61.3826 C   0  0  0  0  0  0  0  0  0  0  0  0
   22.2141   42.8989   60.2022 C   0  0  0  0  0  0  0  0  0  0  0  0
   21.0107   43.5787   60.0432 C   0  0  0  0  0  0  0  0  0  0  0  0
   20.2559   43.4385   58.8119 C   0  0  0  0  0  0  0  0  0  0  0  0
   18.8986   43.3349   58.7328 C   0  0  0  0  0  0  0  0  0  0  0  0
   18.5853   43.2201   57.4108 N   0  0  0  0  0  0  0  0  0  0  0  0
   19.7355   43.2478   56.6587 C   0  0  0  0  0  0  0  0  0  0  0  0
   19.9969   43.1730   55.3435 N   0  0  0  0  0  0  0  0  0  0  0  0
   21.2474   43.2328   54.8580 C   0  0  0  0  0  0  0  0  0  0  0  0
   22.3494   43.3764   55.6969 C   0  0  0  0  0  0  0  0  0  0  0  0
   23.7146   43.4478   55.2139 C   0  0  0  0  0  0  0  0  0  0  0  0
   24.7800   42.9867   55.9801 C   0  0  0  0  0  0  0  0  0  0  0  0
   26.0366   43.0608   55.5165 N   0  0  0  0  0  0  0  0  0  0  0  0
   26.3071   43.5768   54.3083 C   0  0  0  0  0  0  0  0  0  0  0  0
   25.2797   44.0525   53.5006 C   0  0  0  0  0  0  0  0  0  0  0  0
   25.5565   44.6265   52.1626 C   0  0  0  0  0  0  0  0  0  0  0  0
   25.5625   43.8625   51.1582 O   0  0  0  0  0  0  0  0  0  0  0  0
   25.8341   46.0285   51.9815 N   0  0  0  0  0  0  0  0  0  0  0  0
   25.4951   46.7205   50.7356 C   0  0  0  0  0  0  0  0  0  0  0  0
   26.5202   46.7646   53.0437 C   0  0  0  0  0  0  0  0  0  0  0  0
   23.9677   43.9876   53.9574 C   0  0  0  0  0  0  0  0  0  0  0  0
   22.1159   43.4557   57.0636 C   0  0  0  0  0  0  0  0  0  0  0  0
   20.8016   43.3885   57.5081 C   0  0  0  0  0  0  0  0  0  0  0  0
   19.0661   45.9308   62.7109 H   0  0  0  0  0  0  0  0  0  0  0  0
   17.7373   45.8665   61.7640 H   0  0  0  0  0  0  0  0  0  0  0  0
   18.2714   44.5179   62.5140 H   0  0  0  0  0  0  0  0  0  0  0  0
   20.9101   45.1120   62.9790 H   0  0  0  0  0  0  0  0  0  0  0  0
   22.9785   43.9439   63.2524 H   0  0  0  0  0  0  0  0  0  0  0  0
   23.8034   42.5460   61.4969 H   0  0  0  0  0  0  0  0  0  0  0  0
   22.5586   42.3134   59.4684 H   0  0  0  0  0  0  0  0  0  0  0  0
   18.2554   43.3419   59.4985 H   0  0  0  0  0  0  0  0  0  0  0  0
   17.6594   43.1295   57.0441 H   0  0  0  0  0  0  0  0  0  0  0  0
   21.3907   43.1729   53.8702 H   0  0  0  0  0  0  0  0  0  0  0  0
   24.6077   42.5965   56.8846 H   0  0  0  0  0  0  0  0  0  0  0  0
   27.2529   43.6198   53.9865 H   0  0  0  0  0  0  0  0  0  0  0  0
   24.5092   46.6611   50.5789 H   0  0  0  0  0  0  0  0  0  0  0  0
   25.7645   47.6811   50.8038 H   0  0  0  0  0  0  0  0  0  0  0  0
   25.9802   46.2916   49.9735 H   0  0  0  0  0  0  0  0  0  0  0  0
   27.4165   46.3532   53.2089 H   0  0  0  0  0  0  0  0  0  0  0  0
   26.6371   47.7182   52.7664 H   0  0  0  0  0  0  0  0  0  0  0  0
   25.9758   46.7254   53.8816 H   0  0  0  0  0  0  0  0  0  0  0  0
   23.2164   44.3246   53.3900 H   0  0  0  0  0  0  0  0  0  0  0  0
   22.8725   43.5583   57.7094 H   0  0  0  0  0  0  0  0  0  0  0  0
  1  2  1  0  0  0  0
  2  3  1  0  0  0  0
  3  4  2  0  0  0  0
  4  5  1  0  0  0  0
  5  6  2  0  0  0  0
  6  7  1  0  0  0  0
  7  8  2  0  0  0  0
  8  9  1  0  0  0  0
  9 10  2  0  0  0  0
 10 11  1  0  0  0  0
 11 12  1  0  0  0  0
 12 13  2  0  0  0  0
 13 14  1  0  0  0  0
 14 15  2  0  0  0  0
 15 16  1  0  0  0  0
 16 17  2  0  0  0  0
 17 18  1  0  0  0  0
 18 19  2  0  0  0  0
 19 20  1  0  0  0  0
 20 21  1  0  0  0  0
 21 22  2  0  0  0  0
 21 23  1  0  0  0  0
 23 24  1  0  0  0  0
 23 25  1  0  0  0  0
 20 26  2  0  0  0  0
 15 27  1  0  0  0  0
 27 28  2  0  0  0  0
  8  3  1  0  0  0  0
 28  9  1  0  0  0  0
 28 12  1  0  0  0  0
 26 16  1  0  0  0  0
  1 29  1  0  0  0  0
  1 30  1  0  0  0  0
  1 31  1  0  0  0  0
  4 32  1  0  0  0  0
  5 33  1  0  0  0  0
  6 34  1  0  0  0  0
  7 35  1  0  0  0  0
 10 36  1  0  0  0  0
 11 37  1  0  0  0  0
 14 38  1  0  0  0  0
 17 39  1  0  0  0  0
 19 40  1  0  0  0  0
 24 41  1  0  0  0  0
 24 42  1  0  0  0  0
 24 43  1  0  0  0  0
 25 44  1  0  0  0  0
 25 45  1  0  0  0  0
 25 46  1  0  0  0  0
 26 47  1  0  0  0  0
 27 48  1  0  0  0  0
M  END
>  <docking-score>
-12.86

$$$$
3MS9_MS9_1
foFlexX   03222115283D 1   1.00000     0.00000     0
FlexX 4.5.0 fol007
 20 20  0  0  0  0            999 V2000
   22.7723   44.5214   57.1691 C   0  0  0  0  0  0  0  0  0  0  0  0
   22.1950   43.8074   56.0826 O   0  0  0  0  0  0  0  0  0  0  0  0
   21.5873   44.4471   54.9967 C   0  0  0  0  0  0  0  0  0  0  0  0
   21.8497   45.6557   54.7480 O   0  0  0  0  0  0  0  0  0  0  0  0
   20.7038   43.6933   54.1281 C   0  0  0  0  0  0  0  0  0  0  0  0
   21.0568   43.5392   52.7911 C   0  0  0  0  0  0  0  0  0  0  0  0
   20.2311   42.8215   51.9318 C   0  0  0  0  0  0  0  0  0  0  0  0
   19.0546   42.2628   52.4211 C   0  0  0  0  0  0  0  0  0  0  0  0
   17.9940   41.3436   51.3259 Cl  0  0  0  0  0  0  0  0  0  0  0  0
   18.6955   42.4132   53.7567 C   0  0  0  0  0  0  0  0  0  0  0  0
   19.5255   43.1318   54.6114 C   0  0  0  0  0  0  0  0  0  0  0  0
   19.1480   43.2726   55.9525 N   0  0  0  0  0  0  0  0  0  0  0  0
   22.0705   45.0801   57.6112 H   0  0  0  0  0  0  0  0  0  0  0  0
   23.1487   43.8735   57.8313 H   0  0  0  0  0  0  0  0  0  0  0  0
   23.5034   45.1125   56.8286 H   0  0  0  0  0  0  0  0  0  0  0  0
   21.9041   43.9444   52.4479 H   0  0  0  0  0  0  0  0  0  0  0  0
   20.4812   42.7080   50.9702 H   0  0  0  0  0  0  0  0  0  0  0  0
   17.8479   42.0082   54.0996 H   0  0  0  0  0  0  0  0  0  0  0  0
   19.0013   44.1837   56.3376 H   0  0  0  0  0  0  0  0  0  0  0  0
   19.0250   42.4620   56.5250 H   0  0  0  0  0  0  0  0  0  0  0  0
  1  2  1  0  0  0  0
  2  3  1  0  0  0  0
  3  4  2  0  0  0  0
  3  5  1  0  0  0  0
  5  6  2  0  0  0  0
  6  7  1  0  0  0  0
  7  8  2  0  0  0  0
  8  9  1  0  0  0  0
  8 10  1  0  0  0  0
 10 11  2  0  0  0  0
 11 12  1  0  0  0  0
 11  5  1  0  0  0  0
  1 13  1  0  0  0  0
  1 14  1  0  0  0  0
  1 15  1  0  0  0  0
  6 16  1  0  0  0  0
  7 17  1  0  0  0  0
 10 18  1  0  0  0  0
 12 19  1  0  0  0  0
 12 20  1  0  0  0  0
M  END
>  <docking-score>
-12.58

$$$$
3MS9_MS9_2
foFlexX   03222115283D 1   1.00000     0.00000     0
FlexX 4.5.0 fol007
 20 20  0  0  0  0            999 V2000
   22.5738   45.8267   56.4464 C   0  0  0  0  0  0  0  0  0  0  0  0
   21.8025   45.3863   55.3354 O   0  0  0  0  0  0  0  0  0  0  0  0
   22.1252   44.2414   54.5986 C   0  0  0  0  0  0  0  0  0  0  0  0
   23.2947   43.7705   54.6432 O   0  0  0  0  0  0  0  0  0  0  0  0
   21.0914   43.5698   53.8349 C   0  0  0  0  0  0  0  0  0  0  0  0
   21.2791   43.3989   52.4669 C   0  0  0  0  0  0  0  0  0  0  0  0
   20.3065   42.7584   51.7058 C   0  0  0  0  0  0  0  0  0  0  0  0
   19.1502   42.2934   52.3241 C   0  0  0  0  0  0  0  0  0  0  0  0
   17.9021   41.4733   51.3550 Cl  0  0  0  0  0  0  0  0  0  0  0  0
   18.9560   42.4611   53.6914 C   0  0  0  0  0  0  0  0  0  0  0  0
   19.9324   43.1022   54.4474 C   0  0  0  0  0  0  0  0  0  0  0  0
   19.7197   43.2617   55.8222 N   0  0  0  0  0  0  0  0  0  0  0  0
   23.5092   46.0170   56.1484 H   0  0  0  0  0  0  0  0  0  0  0  0
   22.1686   46.6591   56.8245 H   0  0  0  0  0  0  0  0  0  0  0  0
   22.5859   45.1137   57.1475 H   0  0  0  0  0  0  0  0  0  0  0  0
   22.1132   43.7365   52.0307 H   0  0  0  0  0  0  0  0  0  0  0  0
   20.4375   42.6332   50.7223 H   0  0  0  0  0  0  0  0  0  0  0  0
   18.1216   42.1237   54.1273 H   0  0  0  0  0  0  0  0  0  0  0  0
   19.6923   44.1784   56.2208 H   0  0  0  0  0  0  0  0  0  0  0  0
   19.5953   42.4589   56.4053 H   0  0  0  0  0  0  0  0  0  0  0  0
  1  2  1  0  0  0  0
  2  3  1  0  0  0  0
  3  4  2  0  0  0  0
  3  5  1  0  0  0  0
  5  6  2  0  0  0  0
  6  7  1  0  0  0  0
  7  8  2  0  0  0  0
  8  9  1  0  0  0  0
  8 10  1  0  0  0  0
 10 11  2  0  0  0  0
 11 12  1  0  0  0  0
 11  5  1  0  0  0  0
  1 13  1  0  0  0  0
  1 14  1  0  0  0  0
  1 15  1  0  0  0  0
  6 16  1  0  0  0  0
  7 17  1  0  0  0  0
 10 18  1  0  0  0  0
 12 19  1  0  0  0  0
 12 20  1  0  0  0  0
M  END
>  <docking-score>
-12.11

$$$$
3MS9_MS9_3
foFlexX   03222115283D 1   1.00000     0.00000     0
FlexX 4.5.0 fol007
 20 20  0  0  0  0            999 V2000
   24.4026   44.0957   55.5585 C   0  0  0  0  0  0  0  0  0  0  0  0
   23.4291   43.7338   54.5866 O   0  0  0  0  0  0  0  0  0  0  0  0
   22.1252   44.2414   54.5986 C   0  0  0  0  0  0  0  0  0  0  0  0
   21.8670   45.3042   55.2272 O   0  0  0  0  0  0  0  0  0  0  0  0
   21.0914   43.5698   53.8349 C   0  0  0  0  0  0  0  0  0  0  0  0
   21.2791   43.3989   52.4669 C   0  0  0  0  0  0  0  0  0  0  0  0
   20.3065   42.7584   51.7058 C   0  0  0  0  0  0  0  0  0  0  0  0
   19.1502   42.2934   52.3241 C   0  0  0  0  0  0  0  0  0  0  0  0
   17.9021   41.4733   51.3550 Cl  0  0  0  0  0  0  0  0  0  0  0  0
   18.9560   42.4611   53.6914 C   0  0  0  0  0  0  0  0  0  0  0  0
   19.9324   43.1022   54.4474 C   0  0  0  0  0  0  0  0  0  0  0  0
   19.7197   43.2617   55.8222 N   0  0  0  0  0  0  0  0  0  0  0  0
   24.0775   43.8373   56.4682 H   0  0  0  0  0  0  0  0  0  0  0  0
   25.2607   43.6206   55.3638 H   0  0  0  0  0  0  0  0  0  0  0  0
   24.5540   45.0837   55.5268 H   0  0  0  0  0  0  0  0  0  0  0  0
   22.1132   43.7365   52.0307 H   0  0  0  0  0  0  0  0  0  0  0  0
   20.4375   42.6332   50.7223 H   0  0  0  0  0  0  0  0  0  0  0  0
   18.1216   42.1237   54.1273 H   0  0  0  0  0  0  0  0  0  0  0  0
   19.6923   44.1784   56.2208 H   0  0  0  0  0  0  0  0  0  0  0  0
   19.5953   42.4589   56.4053 H   0  0  0  0  0  0  0  0  0  0  0  0
  1  2  1  0  0  0  0
  2  3  1  0  0  0  0
  3  4  2  0  0  0  0
  3  5  1  0  0  0  0
  5  6  2  0  0  0  0
  6  7  1  0  0  0  0
  7  8  2  0  0  0  0
  8  9  1  0  0  0  0
  8 10  1  0  0  0  0
 10 11  2  0  0  0  0
 11 12  1  0  0  0  0
 11  5  1  0  0  0  0
  1 13  1  0  0  0  0
  1 14  1  0  0  0  0
  1 15  1  0  0  0  0
  6 16  1  0  0  0  0
  7 17  1  0  0  0  0
 10 18  1  0  0  0  0
 12 19  1  0  0  0  0
 12 20  1  0  0  0  0
M  END
>  <docking-score>
-11.78

$$$$
3K5V_STJ_1
foFlexX   03222115283D 1   1.00000     0.00000     0
FlexX 4.5.0 fol007
 40 42  0  0  0  0            999 V2000
   26.8928   42.2796   54.1711 N   0  0  0  0  0  0  0  0  0  0  0  0
   26.6229   43.5236   53.5190 C   0  0  0  0  0  0  0  0  0  0  0  0
   26.8644   43.6287   52.2858 O   0  0  0  0  0  0  0  0  0  0  0  0
   26.0526   44.6781   54.2558 C   0  0  0  0  0  0  0  0  0  0  0  0
   26.6412   45.9331   54.1385 C   0  0  0  0  0  0  0  0  0  0  0  0
   26.0925   47.0039   54.8369 C   0  0  0  0  0  0  0  0  0  0  0  0
   24.9723   46.8340   55.6437 C   0  0  0  0  0  0  0  0  0  0  0  0
   24.3996   45.5701   55.7461 C   0  0  0  0  0  0  0  0  0  0  0  0
   23.2309   45.3814   56.5843 C   0  0  0  0  0  0  0  0  0  0  0  0
   22.3080   44.3968   56.2473 C   0  0  0  0  0  0  0  0  0  0  0  0
   21.1906   44.2244   57.0578 C   0  0  0  0  0  0  0  0  0  0  0  0
   20.2543   43.2364   56.7274 N   0  0  0  0  0  0  0  0  0  0  0  0
   19.9809   42.8043   55.3837 C   0  0  0  0  0  0  0  0  0  0  0  0
   21.0042   42.2568   54.6164 C   0  0  0  0  0  0  0  0  0  0  0  0
   20.7489   41.8356   53.3150 C   0  0  0  0  0  0  0  0  0  0  0  0
   19.4649   41.9703   52.7974 C   0  0  0  0  0  0  0  0  0  0  0  0
   19.2044   41.5665   51.5364 O   0  0  0  0  0  0  0  0  0  0  0  0
   18.2562   40.5660   51.1710 C   0  0  0  0  0  0  0  0  0  0  0  0
   16.9894   40.9350   51.5868 F   0  0  0  0  0  0  0  0  0  0  0  0
   18.2524   40.4331   49.7961 F   0  0  0  0  0  0  0  0  0  0  0  0
   18.6030   39.3516   51.7354 F   0  0  0  0  0  0  0  0  0  0  0  0
   18.4353   42.5174   53.5574 C   0  0  0  0  0  0  0  0  0  0  0  0
   18.6994   42.9353   54.8575 C   0  0  0  0  0  0  0  0  0  0  0  0
   21.0375   45.0089   58.1355 N   0  0  0  0  0  0  0  0  0  0  0  0
   21.9364   45.9544   58.4481 C   0  0  0  0  0  0  0  0  0  0  0  0
   23.0186   46.1322   57.6755 N   0  0  0  0  0  0  0  0  0  0  0  0
   24.9318   44.4853   55.0566 C   0  0  0  0  0  0  0  0  0  0  0  0
   27.8225   41.9114   54.1805 H   0  0  0  0  0  0  0  0  0  0  0  0
   26.1518   41.7780   54.6177 H   0  0  0  0  0  0  0  0  0  0  0  0
   27.4468   46.0636   53.5606 H   0  0  0  0  0  0  0  0  0  0  0  0
   26.5097   47.9093   54.7576 H   0  0  0  0  0  0  0  0  0  0  0  0
   24.5843   47.6088   56.1428 H   0  0  0  0  0  0  0  0  0  0  0  0
   22.4449   43.8245   55.4387 H   0  0  0  0  0  0  0  0  0  0  0  0
   19.7447   42.8050   57.4719 H   0  0  0  0  0  0  0  0  0  0  0  0
   21.9232   42.1659   55.0002 H   0  0  0  0  0  0  0  0  0  0  0  0
   21.4799   41.4409   52.7584 H   0  0  0  0  0  0  0  0  0  0  0  0
   17.5165   42.6089   53.1733 H   0  0  0  0  0  0  0  0  0  0  0  0
   17.9684   43.3301   55.4140 H   0  0  0  0  0  0  0  0  0  0  0  0
   21.7998   46.5265   59.2569 H   0  0  0  0  0  0  0  0  0  0  0  0
   24.5145   43.5799   55.1356 H   0  0  0  0  0  0  0  0  0  0  0  0
  1  2  1  0  0  0  0
  2  3  2  0  0  0  0
  2  4  1  0  0  0  0
  4  5  2  0  0  0  0
  5  6  1  0  0  0  0
  6  7  2  0  0  0  0
  7  8  1  0  0  0  0
  8  9  1  0  0  0  0
  9 10  2  0  0  0  0
 10 11  1  0  0  0  0
 11 12  1  0  0  0  0
 12 13  1  0  0  0  0
 13 14  2  0  0  0  0
 14 15  1  0  0  0  0
 15 16  2  0  0  0  0
 16 17  1  0  0  0  0
 17 18  1  0  0  0  0
 18 19  1  0  0  0  0
 18 20  1  0  0  0  0
 18 21  1  0  0  0  0
 16 22  1  0  0  0  0
 22 23  2  0  0  0  0
 11 24  2  0  0  0  0
 24 25  1  0  0  0  0
 25 26  2  0  0  0  0
  8 27  2  0  0  0  0
 27  4  1  0  0  0  0
 26  9  1  0  0  0  0
 23 13  1  0  0  0  0
  1 28  1  0  0  0  0
  1 29  1  0  0  0  0
  5 30  1  0  0  0  0
  6 31  1  0  0  0  0
  7 32  1  0  0  0  0
 10 33  1  0  0  0  0
 12 34  1  0  0  0  0
 14 35  1  0  0  0  0
 15 36  1  0  0  0  0
 22 37  1  0  0  0  0
 23 38  1  0  0  0  0
 25 39  1  0  0  0  0
 27 40  1  0  0  0  0
M  END
>  <docking-score>
-19.35

$$$$
3K5V_STJ_2
foFlexX   03222115283D 1   1.00000     0.00000     0
FlexX 4.5.0 fol007
 40 42  0  0  0  0            999 V2000
   25.4623   46.1930   51.6147 N   0  0  0  0  0  0  0  0  0  0  0  0
   25.9232   44.8552   51.8231 C   0  0  0  0  0  0  0  0  0  0  0  0
   26.2419   44.1588   50.8213 O   0  0  0  0  0  0  0  0  0  0  0  0
   26.0491   44.2813   53.1854 C   0  0  0  0  0  0  0  0  0  0  0  0
   27.2369   43.6687   53.5713 C   0  0  0  0  0  0  0  0  0  0  0  0
   27.3365   43.1363   54.8528 C   0  0  0  0  0  0  0  0  0  0  0  0
   26.2706   43.2094   55.7434 C   0  0  0  0  0  0  0  0  0  0  0  0
   25.0920   43.8270   55.3363 C   0  0  0  0  0  0  0  0  0  0  0  0
   23.9741   43.9093   56.2570 C   0  0  0  0  0  0  0  0  0  0  0  0
   22.6788   43.9175   55.7500 C   0  0  0  0  0  0  0  0  0  0  0  0
   21.6141   43.9969   56.6417 C   0  0  0  0  0  0  0  0  0  0  0  0
   20.3055   44.0067   56.1421 N   0  0  0  0  0  0  0  0  0  0  0  0
   19.9038   43.3539   54.9258 C   0  0  0  0  0  0  0  0  0  0  0  0
   18.6059   42.8678   54.8032 C   0  0  0  0  0  0  0  0  0  0  0  0
   18.2082   42.2347   53.6295 C   0  0  0  0  0  0  0  0  0  0  0  0
   19.1216   42.0963   52.5897 C   0  0  0  0  0  0  0  0  0  0  0  0
   18.7485   41.4836   51.4467 O   0  0  0  0  0  0  0  0  0  0  0  0
   18.2846   40.1389   51.3462 C   0  0  0  0  0  0  0  0  0  0  0  0
   17.1434   39.9698   52.1097 F   0  0  0  0  0  0  0  0  0  0  0  0
   17.9814   39.8669   50.0263 F   0  0  0  0  0  0  0  0  0  0  0  0
   19.2683   39.2624   51.7675 F   0  0  0  0  0  0  0  0  0  0  0  0
   20.4219   42.5789   52.7037 C   0  0  0  0  0  0  0  0  0  0  0  0
   20.8108   43.2106   53.8803 C   0  0  0  0  0  0  0  0  0  0  0  0
   21.8670   44.0625   57.9578 N   0  0  0  0  0  0  0  0  0  0  0  0
   23.1219   44.0535   58.4321 C   0  0  0  0  0  0  0  0  0  0  0  0
   24.1586   43.9775   57.5840 N   0  0  0  0  0  0  0  0  0  0  0  0
   24.9706   44.3661   54.0596 C   0  0  0  0  0  0  0  0  0  0  0  0
   24.5480   46.4600   51.9193 H   0  0  0  0  0  0  0  0  0  0  0  0
   26.0543   46.8614   51.1644 H   0  0  0  0  0  0  0  0  0  0  0  0
   28.0078   43.6119   52.9370 H   0  0  0  0  0  0  0  0  0  0  0  0
   28.1871   42.6944   55.1378 H   0  0  0  0  0  0  0  0  0  0  0  0
   26.3500   42.8238   56.6626 H   0  0  0  0  0  0  0  0  0  0  0  0
   22.5164   43.8672   54.7646 H   0  0  0  0  0  0  0  0  0  0  0  0
   19.6077   44.4978   56.6636 H   0  0  0  0  0  0  0  0  0  0  0  0
   17.9590   42.9732   55.5584 H   0  0  0  0  0  0  0  0  0  0  0  0
   17.2767   41.8835   53.5348 H   0  0  0  0  0  0  0  0  0  0  0  0
   21.0690   42.4727   51.9487 H   0  0  0  0  0  0  0  0  0  0  0  0
   21.7423   43.5619   53.9749 H   0  0  0  0  0  0  0  0  0  0  0  0
   23.2844   44.1034   59.4175 H   0  0  0  0  0  0  0  0  0  0  0  0
   24.1201   44.8082   53.7746 H   0  0  0  0  0  0  0  0  0  0  0  0
  1  2  1  0  0  0  0
  2  3  2  0  0  0  0
  2  4  1  0  0  0  0
  4  5  2  0  0  0  0
  5  6  1  0  0  0  0
  6  7  2  0  0  0  0
  7  8  1  0  0  0  0
  8  9  1  0  0  0  0
  9 10  2  0  0  0  0
 10 11  1  0  0  0  0
 11 12  1  0  0  0  0
 12 13  1  0  0  0  0
 13 14  2  0  0  0  0
 14 15  1  0  0  0  0
 15 16  2  0  0  0  0
 16 17  1  0  0  0  0
 17 18  1  0  0  0  0
 18 19  1  0  0  0  0
 18 20  1  0  0  0  0
 18 21  1  0  0  0  0
 16 22  1  0  0  0  0
 22 23  2  0  0  0  0
 11 24  2  0  0  0  0
 24 25  1  0  0  0  0
 25 26  2  0  0  0  0
  8 27  2  0  0  0  0
 27  4  1  0  0  0  0
 26  9  1  0  0  0  0
 23 13  1  0  0  0  0
  1 28  1  0  0  0  0
  1 29  1  0  0  0  0
  5 30  1  0  0  0  0
  6 31  1  0  0  0  0
  7 32  1  0  0  0  0
 10 33  1  0  0  0  0
 12 34  1  0  0  0  0
 14 35  1  0  0  0  0
 15 36  1  0  0  0  0
 22 37  1  0  0  0  0
 23 38  1  0  0  0  0
 25 39  1  0  0  0  0
 27 40  1  0  0  0  0
M  END
>  <docking-score>
-19.04

$$$$
3K5V_STJ_3
foFlexX   03222115283D 1   1.00000     0.00000     0
FlexX 4.5.0 fol007
 40 42  0  0  0  0            999 V2000
   25.4171   46.1693   51.5904 N   0  0  0  0  0  0  0  0  0  0  0  0
   25.9064   44.8461   51.8258 C   0  0  0  0  0  0  0  0  0  0  0  0
   26.2331   44.1338   50.8378 O   0  0  0  0  0  0  0  0  0  0  0  0
   26.0522   44.3058   53.1997 C   0  0  0  0  0  0  0  0  0  0  0  0
   27.2545   43.7262   53.5916 C   0  0  0  0  0  0  0  0  0  0  0  0
   27.3727   43.2249   54.8840 C   0  0  0  0  0  0  0  0  0  0  0  0
   26.3109   43.2966   55.7796 C   0  0  0  0  0  0  0  0  0  0  0  0
   25.1176   43.8809   55.3665 C   0  0  0  0  0  0  0  0  0  0  0  0
   24.0038   43.9613   56.2924 C   0  0  0  0  0  0  0  0  0  0  0  0
   22.7056   43.9318   55.7938 C   0  0  0  0  0  0  0  0  0  0  0  0
   21.6449   44.0098   56.6904 C   0  0  0  0  0  0  0  0  0  0  0  0
   20.3333   43.9818   56.1992 N   0  0  0  0  0  0  0  0  0  0  0  0
   19.9377   43.2938   55.0005 C   0  0  0  0  0  0  0  0  0  0  0  0
   20.8907   42.6033   54.2583 C   0  0  0  0  0  0  0  0  0  0  0  0
   20.5170   41.9343   53.0967 C   0  0  0  0  0  0  0  0  0  0  0  0
   19.1865   41.9673   52.6925 C   0  0  0  0  0  0  0  0  0  0  0  0
   18.8114   41.3233   51.5675 O   0  0  0  0  0  0  0  0  0  0  0  0
   17.8495   40.2726   51.5015 C   0  0  0  0  0  0  0  0  0  0  0  0
   16.6230   40.7193   51.9599 F   0  0  0  0  0  0  0  0  0  0  0  0
   17.7139   39.8711   50.1867 F   0  0  0  0  0  0  0  0  0  0  0  0
   18.2705   39.1925   52.2564 F   0  0  0  0  0  0  0  0  0  0  0  0
   18.2266   42.6559   53.4282 C   0  0  0  0  0  0  0  0  0  0  0  0
   18.6090   43.3215   54.5882 C   0  0  0  0  0  0  0  0  0  0  0  0
   21.9043   44.1102   58.0030 N   0  0  0  0  0  0  0  0  0  0  0  0
   23.1620   44.1373   58.4692 C   0  0  0  0  0  0  0  0  0  0  0  0
   24.1949   44.0632   57.6163 N   0  0  0  0  0  0  0  0  0  0  0  0
   24.9775   44.3884   54.0789 C   0  0  0  0  0  0  0  0  0  0  0  0
   24.4994   46.4245   51.8949 H   0  0  0  0  0  0  0  0  0  0  0  0
   25.9926   46.8392   51.1214 H   0  0  0  0  0  0  0  0  0  0  0  0
   28.0226   43.6707   52.9537 H   0  0  0  0  0  0  0  0  0  0  0  0
   28.2338   42.8069   55.1734 H   0  0  0  0  0  0  0  0  0  0  0  0
   26.4038   42.9335   56.7068 H   0  0  0  0  0  0  0  0  0  0  0  0
   22.5382   43.8561   54.8108 H   0  0  0  0  0  0  0  0  0  0  0  0
   19.6289   44.4703   56.7141 H   0  0  0  0  0  0  0  0  0  0  0  0
   21.8441   42.5877   54.5595 H   0  0  0  0  0  0  0  0  0  0  0  0
   21.1969   41.4358   52.5590 H   0  0  0  0  0  0  0  0  0  0  0  0
   17.2734   42.6720   53.1265 H   0  0  0  0  0  0  0  0  0  0  0  0
   17.9290   43.8199   55.1258 H   0  0  0  0  0  0  0  0  0  0  0  0
   23.3295   44.2126   59.4521 H   0  0  0  0  0  0  0  0  0  0  0  0
   24.1165   44.8067   53.7895 H   0  0  0  0  0  0  0  0  0  0  0  0
  1  2  1  0  0  0  0
  2  3  2  0  0  0  0
  2  4  1  0  0  0  0
  4  5  2  0  0  0  0
  5  6  1  0  0  0  0
  6  7  2  0  0  0  0
  7  8  1  0  0  0  0
  8  9  1  0  0  0  0
  9 10  2  0  0  0  0
 10 11  1  0  0  0  0
 11 12  1  0  0  0  0
 12 13  1  0  0  0  0
 13 14  2  0  0  0  0
 14 15  1  0  0  0  0
 15 16  2  0  0  0  0
 16 17  1  0  0  0  0
 17 18  1  0  0  0  0
 18 19  1  0  0  0  0
 18 20  1  0  0  0  0
 18 21  1  0  0  0  0
 16 22  1  0  0  0  0
 22 23  2  0  0  0  0
 11 24  2  0  0  0  0
 24 25  1  0  0  0  0
 25 26  2  0  0  0  0
  8 27  2  0  0  0  0
 27  4  1  0  0  0  0
 26  9  1  0  0  0  0
 23 13  1  0  0  0  0
  1 28  1  0  0  0  0
  1 29  1  0  0  0  0
  5 30  1  0  0  0  0
  6 31  1  0  0  0  0
  7 32  1  0  0  0  0
 10 33  1  0  0  0  0
 12 34  1  0  0  0  0
 14 35  1  0  0  0  0
 15 36  1  0  0  0  0
 22 37  1  0  0  0  0
 23 38  1  0  0  0  0
 25 39  1  0  0  0  0
 27 40  1  0  0  0  0
M  END
>  <docking-score>
-18.24

$$$$
3K5V_STI_1
foFlexX   03222115283D 1   1.00000     0.00000     0
FlexX 4.5.0 fol007
 70 74  0  0  0  0            999 V2000
   24.0902   46.5801   60.9855 C   0  0  0  0  0  0  0  0  0  0  0  0
   23.6424   45.8445   59.7329 C   0  0  0  0  0  0  0  0  0  0  0  0
   23.5177   46.5591   58.5461 C   0  0  0  0  0  0  0  0  0  0  0  0
   23.1101   45.9118   57.3840 C   0  0  0  0  0  0  0  0  0  0  0  0
   22.8310   44.5497   57.4241 C   0  0  0  0  0  0  0  0  0  0  0  0
   22.4199   43.8888   56.2604 N   0  0  0  0  0  0  0  0  0  0  0  0
   21.6809   44.5219   55.2021 C   0  0  0  0  0  0  0  0  0  0  0  0
   21.8395   45.7536   54.9798 O   0  0  0  0  0  0  0  0  0  0  0  0
   20.7711   43.7352   54.3342 C   0  0  0  0  0  0  0  0  0  0  0  0
   20.7600   43.9741   52.9636 C   0  0  0  0  0  0  0  0  0  0  0  0
   19.9129   43.2432   52.1366 C   0  0  0  0  0  0  0  0  0  0  0  0
   19.0841   42.2773   52.6997 C   0  0  0  0  0  0  0  0  0  0  0  0
   18.1526   41.4716   51.8084 C   0  0  0  0  0  0  0  0  0  0  0  0
   18.4326   40.0175   51.8822 N   0  3  0  0  0  0  0  0  0  0  0  0
   17.1790   39.2847   51.6448 C   0  0  0  0  0  0  0  0  0  0  0  0
   17.4570   37.9281   51.0141 C   0  0  0  0  0  0  0  0  0  0  0  0
   18.0059   38.0846   49.6590 N   0  3  0  0  0  0  0  0  0  0  0  0
   16.9422   38.1823   48.6480 C   0  0  0  0  0  0  0  0  0  0  0  0
   18.8488   39.2853   49.5572 C   0  0  0  0  0  0  0  0  0  0  0  0
   19.4617   39.6106   50.9112 C   0  0  0  0  0  0  0  0  0  0  0  0
   19.0916   42.0353   54.0694 C   0  0  0  0  0  0  0  0  0  0  0  0
   19.9407   42.7690   54.8922 C   0  0  0  0  0  0  0  0  0  0  0  0
   22.9534   43.8282   58.6072 C   0  0  0  0  0  0  0  0  0  0  0  0
   23.3613   44.4822   59.7655 C   0  0  0  0  0  0  0  0  0  0  0  0
   23.4924   43.7520   60.9932 N   0  0  0  0  0  0  0  0  0  0  0  0
   22.4132   43.0831   61.5847 C   0  0  0  0  0  0  0  0  0  0  0  0
   22.6610   42.0440   62.3957 N   0  0  0  0  0  0  0  0  0  0  0  0
   21.6673   41.3664   62.9890 C   0  0  0  0  0  0  0  0  0  0  0  0
   20.3482   41.7453   62.7621 C   0  0  0  0  0  0  0  0  0  0  0  0
   20.1011   42.8237   61.9196 C   0  0  0  0  0  0  0  0  0  0  0  0
   18.7270   43.2255   61.6771 C   0  0  0  0  0  0  0  0  0  0  0  0
   17.6921   42.5275   62.2905 C   0  0  0  0  0  0  0  0  0  0  0  0
   16.3777   42.9159   62.0565 C   0  0  0  0  0  0  0  0  0  0  0  0
   16.1401   43.9954   61.2124 C   0  0  0  0  0  0  0  0  0  0  0  0
   17.1551   44.6529   60.6322 N   0  0  0  0  0  0  0  0  0  0  0  0
   18.4318   44.2980   60.8420 C   0  0  0  0  0  0  0  0  0  0  0  0
   21.1437   43.4575   61.3582 N   0  0  0  0  0  0  0  0  0  0  0  0
   24.1328   45.9386   61.7515 H   0  0  0  0  0  0  0  0  0  0  0  0
   24.9950   46.9778   60.8330 H   0  0  0  0  0  0  0  0  0  0  0  0
   23.4374   47.3078   61.1961 H   0  0  0  0  0  0  0  0  0  0  0  0
   23.7210   47.5380   58.5281 H   0  0  0  0  0  0  0  0  0  0  0  0
   23.0187   46.4208   56.5281 H   0  0  0  0  0  0  0  0  0  0  0  0
   22.6536   42.9217   56.1595 H   0  0  0  0  0  0  0  0  0  0  0  0
   21.3611   44.6712   52.5728 H   0  0  0  0  0  0  0  0  0  0  0  0
   19.8998   43.4097   51.1507 H   0  0  0  0  0  0  0  0  0  0  0  0
   18.2685   41.7750   50.8626 H   0  0  0  0  0  0  0  0  0  0  0  0
   17.2091   41.6338   52.0973 H   0  0  0  0  0  0  0  0  0  0  0  0
   18.7590   39.8017   52.8025 H   0  0  0  0  0  0  0  0  0  0  0  0
   16.5983   39.8190   51.0305 H   0  0  0  0  0  0  0  0  0  0  0  0
   16.7075   39.1506   52.5165 H   0  0  0  0  0  0  0  0  0  0  0  0
   18.1162   37.4325   51.5797 H   0  0  0  0  0  0  0  0  0  0  0  0
   16.6038   37.4088   50.9642 H   0  0  0  0  0  0  0  0  0  0  0  0
   18.5683   37.2844   49.4508 H   0  0  0  0  0  0  0  0  0  0  0  0
   16.3650   38.9743   48.8468 H   0  0  0  0  0  0  0  0  0  0  0  0
   17.3521   38.2875   47.7420 H   0  0  0  0  0  0  0  0  0  0  0  0
   16.3862   37.3513   48.6678 H   0  0  0  0  0  0  0  0  0  0  0  0
   18.2899   40.0568   49.2532 H   0  0  0  0  0  0  0  0  0  0  0  0
   19.5793   39.1213   48.8943 H   0  0  0  0  0  0  0  0  0  0  0  0
   19.9340   38.8002   51.2578 H   0  0  0  0  0  0  0  0  0  0  0  0
   20.1180   40.3570   50.8005 H   0  0  0  0  0  0  0  0  0  0  0  0
   18.4905   41.3384   54.4605 H   0  0  0  0  0  0  0  0  0  0  0  0
   19.9539   42.6026   55.8781 H   0  0  0  0  0  0  0  0  0  0  0  0
   22.7502   42.8492   58.6250 H   0  0  0  0  0  0  0  0  0  0  0  0
   24.3853   43.7194   61.4424 H   0  0  0  0  0  0  0  0  0  0  0  0
   21.8731   40.5943   63.5903 H   0  0  0  0  0  0  0  0  0  0  0  0
   19.5936   41.2526   63.1957 H   0  0  0  0  0  0  0  0  0  0  0  0
   17.8912   41.7547   62.8931 H   0  0  0  0  0  0  0  0  0  0  0  0
   15.6179   42.4286   62.4869 H   0  0  0  0  0  0  0  0  0  0  0  0
   15.1996   44.2854   61.0355 H   0  0  0  0  0  0  0  0  0  0  0  0
   19.1710   44.8044   60.3981 H   0  0  0  0  0  0  0  0  0  0  0  0
  1  2  1  0  0  0  0
  2  3  2  0  0  0  0
  3  4  1  0  0  0  0
  4  5  2  0  0  0  0
  5  6  1  0  0  0  0
  6  7  1  0  0  0  0
  7  8  2  0  0  0  0
  7  9  1  0  0  0  0
  9 10  2  0  0  0  0
 10 11  1  0  0  0  0
 11 12  2  0  0  0  0
 12 13  1  0  0  0  0
 13 14  1  0  0  0  0
 14 15  1  0  0  0  0
 15 16  1  0  0  0  0
 16 17  1  0  0  0  0
 17 18  1  0  0  0  0
 17 19  1  0  0  0  0
 19 20  1  0  0  0  0
 12 21  1  0  0  0  0
 21 22  2  0  0  0  0
  5 23  1  0  0  0  0
 23 24  2  0  0  0  0
 24 25  1  0  0  0  0
 25 26  1  0  0  0  0
 26 27  2  0  0  0  0
 27 28  1  0  0  0  0
 28 29  2  0  0  0  0
 29 30  1  0  0  0  0
 30 31  1  0  0  0  0
 31 32  2  0  0  0  0
 32 33  1  0  0  0  0
 33 34  2  0  0  0  0
 34 35  1  0  0  0  0
 35 36  2  0  0  0  0
 30 37  2  0  0  0  0
 24  2  1  0  0  0  0
 37 26  1  0  0  0  0
 22  9  1  0  0  0  0
 36 31  1  0  0  0  0
 20 14  1  0  0  0  0
  1 38  1  0  0  0  0
  1 39  1  0  0  0  0
  1 40  1  0  0  0  0
  3 41  1  0  0  0  0
  4 42  1  0  0  0  0
  6 43  1  0  0  0  0
 10 44  1  0  0  0  0
 11 45  1  0  0  0  0
 13 46  1  0  0  0  0
 13 47  1  0  0  0  0
 14 48  1  0  0  0  0
 15 49  1  0  0  0  0
 15 50  1  0  0  0  0
 16 51  1  0  0  0  0
 16 52  1  0  0  0  0
 17 53  1  0  0  0  0
 18 54  1  0  0  0  0
 18 55  1  0  0  0  0
 18 56  1  0  0  0  0
 19 57  1  0  0  0  0
 19 58  1  0  0  0  0
 20 59  1  0  0  0  0
 20 60  1  0  0  0  0
 21 61  1  0  0  0  0
 22 62  1  0  0  0  0
 23 63  1  0  0  0  0
 25 64  1  0  0  0  0
 28 65  1  0  0  0  0
 29 66  1  0  0  0  0
 32 67  1  0  0  0  0
 33 68  1  0  0  0  0
 34 69  1  0  0  0  0
 36 70  1  0  0  0  0
M  CHG  2  14   1  17   1
M  END
>  <docking-score>
-11.72

$$$$
3K5V_STI_2
foFlexX   03222115283D 1   1.00000     0.00000     0
FlexX 4.5.0 fol007
 70 74  0  0  0  0            999 V2000
   20.4149   46.2596   62.4002 C   0  0  0  0  0  0  0  0  0  0  0  0
   20.4373   45.4522   61.1125 C   0  0  0  0  0  0  0  0  0  0  0  0
   19.3965   44.5642   60.8615 C   0  0  0  0  0  0  0  0  0  0  0  0
   19.3907   43.8124   59.6909 C   0  0  0  0  0  0  0  0  0  0  0  0
   20.4321   43.9596   58.7807 C   0  0  0  0  0  0  0  0  0  0  0  0
   20.4360   43.1871   57.5674 N   0  0  0  0  0  0  0  0  0  0  0  0
   21.4685   43.2723   56.5706 C   0  0  0  0  0  0  0  0  0  0  0  0
   22.6474   43.5618   56.9156 O   0  0  0  0  0  0  0  0  0  0  0  0
   21.1773   42.9745   55.1471 C   0  0  0  0  0  0  0  0  0  0  0  0
   22.2183   42.6071   54.3002 C   0  0  0  0  0  0  0  0  0  0  0  0
   21.9603   42.3236   52.9628 C   0  0  0  0  0  0  0  0  0  0  0  0
   20.6539   42.4131   52.4912 C   0  0  0  0  0  0  0  0  0  0  0  0
   20.3573   42.1070   51.0319 C   0  0  0  0  0  0  0  0  0  0  0  0
   20.0432   40.6740   50.8173 N   0  3  0  0  0  0  0  0  0  0  0  0
   18.6895   40.5478   50.2583 C   0  0  0  0  0  0  0  0  0  0  0  0
   18.2833   39.0836   50.1689 C   0  0  0  0  0  0  0  0  0  0  0  0
   18.4286   38.3946   51.4627 N   0  3  0  0  0  0  0  0  0  0  0  0
   17.1511   37.8053   51.8908 C   0  0  0  0  0  0  0  0  0  0  0  0
   18.9628   39.2448   52.5386 C   0  0  0  0  0  0  0  0  0  0  0  0
   20.2292   39.9551   52.0914 C   0  0  0  0  0  0  0  0  0  0  0  0
   19.6102   42.7802   53.3341 C   0  0  0  0  0  0  0  0  0  0  0  0
   19.8735   43.0627   54.6709 C   0  0  0  0  0  0  0  0  0  0  0  0
   21.4765   44.8456   59.0245 C   0  0  0  0  0  0  0  0  0  0  0  0
   21.4758   45.5940   60.1974 C   0  0  0  0  0  0  0  0  0  0  0  0
   22.5199   46.4901   60.4568 N   0  0  0  0  0  0  0  0  0  0  0  0
   23.6129   46.6748   59.5492 C   0  0  0  0  0  0  0  0  0  0  0  0
   24.2807   47.8377   59.5676 N   0  0  0  0  0  0  0  0  0  0  0  0
   25.3117   48.0662   58.7408 C   0  0  0  0  0  0  0  0  0  0  0  0
   25.7017   47.0787   57.8421 C   0  0  0  0  0  0  0  0  0  0  0  0
   25.0031   45.8763   57.8302 C   0  0  0  0  0  0  0  0  0  0  0  0
   25.4035   44.8403   56.8950 C   0  0  0  0  0  0  0  0  0  0  0  0
   25.5748   45.1602   55.5523 C   0  0  0  0  0  0  0  0  0  0  0  0
   25.9592   44.1655   54.6600 C   0  0  0  0  0  0  0  0  0  0  0  0
   26.1609   42.8766   55.1424 C   0  0  0  0  0  0  0  0  0  0  0  0
   25.9892   42.5926   56.4420 N   0  0  0  0  0  0  0  0  0  0  0  0
   25.6190   43.5343   57.3228 C   0  0  0  0  0  0  0  0  0  0  0  0
   23.9804   45.7144   58.6856 N   0  0  0  0  0  0  0  0  0  0  0  0
   21.2220   46.8488   62.4383 H   0  0  0  0  0  0  0  0  0  0  0  0
   19.5893   46.8232   62.4259 H   0  0  0  0  0  0  0  0  0  0  0  0
   20.4187   45.6380   63.1835 H   0  0  0  0  0  0  0  0  0  0  0  0
   18.6526   44.4661   61.5225 H   0  0  0  0  0  0  0  0  0  0  0  0
   18.6449   43.1724   59.5057 H   0  0  0  0  0  0  0  0  0  0  0  0
   19.6776   42.5550   57.4081 H   0  0  0  0  0  0  0  0  0  0  0  0
   23.1521   42.5468   54.6529 H   0  0  0  0  0  0  0  0  0  0  0  0
   22.7036   42.0590   52.3485 H   0  0  0  0  0  0  0  0  0  0  0  0
   21.1574   42.3478   50.4825 H   0  0  0  0  0  0  0  0  0  0  0  0
   19.5746   42.6563   50.7395 H   0  0  0  0  0  0  0  0  0  0  0  0
   20.6930   40.3065   50.1519 H   0  0  0  0  0  0  0  0  0  0  0  0
   18.6726   40.9503   49.3431 H   0  0  0  0  0  0  0  0  0  0  0  0
   18.0436   41.0329   50.8478 H   0  0  0  0  0  0  0  0  0  0  0  0
   17.3277   39.0301   49.8794 H   0  0  0  0  0  0  0  0  0  0  0  0
   18.8624   38.6279   49.4929 H   0  0  0  0  0  0  0  0  0  0  0  0
   19.0739   37.6424   51.3290 H   0  0  0  0  0  0  0  0  0  0  0  0
   16.8437   37.1433   51.2072 H   0  0  0  0  0  0  0  0  0  0  0  0
   17.2746   37.3441   52.7694 H   0  0  0  0  0  0  0  0  0  0  0  0
   16.4663   38.5277   51.9868 H   0  0  0  0  0  0  0  0  0  0  0  0
   19.1706   38.6748   53.3335 H   0  0  0  0  0  0  0  0  0  0  0  0
   18.2757   39.9272   52.7882 H   0  0  0  0  0  0  0  0  0  0  0  0
   20.4961   40.6123   52.7962 H   0  0  0  0  0  0  0  0  0  0  0  0
   20.9552   39.2771   51.9758 H   0  0  0  0  0  0  0  0  0  0  0  0
   18.6764   42.8408   52.9816 H   0  0  0  0  0  0  0  0  0  0  0  0
   19.1301   43.3274   55.2853 H   0  0  0  0  0  0  0  0  0  0  0  0
   22.2203   44.9437   58.3633 H   0  0  0  0  0  0  0  0  0  0  0  0
   22.5021   47.0195   61.3049 H   0  0  0  0  0  0  0  0  0  0  0  0
   25.7966   48.9403   58.7702 H   0  0  0  0  0  0  0  0  0  0  0  0
   26.4681   47.2302   57.2179 H   0  0  0  0  0  0  0  0  0  0  0  0
   25.4231   46.0953   55.2321 H   0  0  0  0  0  0  0  0  0  0  0  0
   26.0883   44.3727   53.6903 H   0  0  0  0  0  0  0  0  0  0  0  0
   26.4376   42.1517   54.5116 H   0  0  0  0  0  0  0  0  0  0  0  0
   25.4980   43.2975   58.2868 H   0  0  0  0  0  0  0  0  0  0  0  0
  1  2  1  0  0  0  0
  2  3  2  0  0  0  0
  3  4  1  0  0  0  0
  4  5  2  0  0  0  0
  5  6  1  0  0  0  0
  6  7  1  0  0  0  0
  7  8  2  0  0  0  0
  7  9  1  0  0  0  0
  9 10  2  0  0  0  0
 10 11  1  0  0  0  0
 11 12  2  0  0  0  0
 12 13  1  0  0  0  0
 13 14  1  0  0  0  0
 14 15  1  0  0  0  0
 15 16  1  0  0  0  0
 16 17  1  0  0  0  0
 17 18  1  0  0  0  0
 17 19  1  0  0  0  0
 19 20  1  0  0  0  0
 12 21  1  0  0  0  0
 21 22  2  0  0  0  0
  5 23  1  0  0  0  0
 23 24  2  0  0  0  0
 24 25  1  0  0  0  0
 25 26  1  0  0  0  0
 26 27  2  0  0  0  0
 27 28  1  0  0  0  0
 28 29  2  0  0  0  0
 29 30  1  0  0  0  0
 30 31  1  0  0  0  0
 31 32  2  0  0  0  0
 32 33  1  0  0  0  0
 33 34  2  0  0  0  0
 34 35  1  0  0  0  0
 35 36  2  0  0  0  0
 30 37  2  0  0  0  0
 24  2  1  0  0  0  0
 37 26  1  0  0  0  0
 22  9  1  0  0  0  0
 36 31  1  0  0  0  0
 20 14  1  0  0  0  0
  1 38  1  0  0  0  0
  1 39  1  0  0  0  0
  1 40  1  0  0  0  0
  3 41  1  0  0  0  0
  4 42  1  0  0  0  0
  6 43  1  0  0  0  0
 10 44  1  0  0  0  0
 11 45  1  0  0  0  0
 13 46  1  0  0  0  0
 13 47  1  0  0  0  0
 14 48  1  0  0  0  0
 15 49  1  0  0  0  0
 15 50  1  0  0  0  0
 16 51  1  0  0  0  0
 16 52  1  0  0  0  0
 17 53  1  0  0  0  0
 18 54  1  0  0  0  0
 18 55  1  0  0  0  0
 18 56  1  0  0  0  0
 19 57  1  0  0  0  0
 19 58  1  0  0  0  0
 20 59  1  0  0  0  0
 20 60  1  0  0  0  0
 21 61  1  0  0  0  0
 22 62  1  0  0  0  0
 23 63  1  0  0  0  0
 25 64  1  0  0  0  0
 28 65  1  0  0  0  0
 29 66  1  0  0  0  0
 32 67  1  0  0  0  0
 33 68  1  0  0  0  0
 34 69  1  0  0  0  0
 36 70  1  0  0  0  0
M  CHG  2  14   1  17   1
M  END
>  <docking-score>
-10.21

$$$$
3K5V_STI_3
foFlexX   03222115283D 1   1.00000     0.00000     0
FlexX 4.5.0 fol007
 70 74  0  0  0  0            999 V2000
   24.1183   46.5149   60.6696 C   0  0  0  0  0  0  0  0  0  0  0  0
   23.6444   45.6889   59.4847 C   0  0  0  0  0  0  0  0  0  0  0  0
   23.5072   46.3106   58.2480 C   0  0  0  0  0  0  0  0  0  0  0  0
   23.0758   45.5792   57.1460 C   0  0  0  0  0  0  0  0  0  0  0  0
   22.7856   44.2271   57.2959 C   0  0  0  0  0  0  0  0  0  0  0  0
   22.3506   43.4821   56.1933 N   0  0  0  0  0  0  0  0  0  0  0  0
   21.6004   44.0385   55.1003 C   0  0  0  0  0  0  0  0  0  0  0  0
   21.7661   45.2478   54.7807 O   0  0  0  0  0  0  0  0  0  0  0  0
   20.6703   43.1960   54.3098 C   0  0  0  0  0  0  0  0  0  0  0  0
   20.7861   41.8108   54.3700 C   0  0  0  0  0  0  0  0  0  0  0  0
   19.9200   41.0075   53.6351 C   0  0  0  0  0  0  0  0  0  0  0  0
   18.9442   41.6087   52.8456 C   0  0  0  0  0  0  0  0  0  0  0  0
   17.9914   40.7433   52.0365 C   0  0  0  0  0  0  0  0  0  0  0  0
   18.6158   39.4625   51.6268 N   0  3  0  0  0  0  0  0  0  0  0  0
   17.5645   38.4381   51.5259 C   0  0  0  0  0  0  0  0  0  0  0  0
   17.9340   37.3842   50.4922 C   0  0  0  0  0  0  0  0  0  0  0  0
   17.9568   37.9636   49.1409 N   0  3  0  0  0  0  0  0  0  0  0  0
   16.6301   37.9211   48.5073 C   0  0  0  0  0  0  0  0  0  0  0  0
   18.4107   39.3621   49.1644 C   0  0  0  0  0  0  0  0  0  0  0  0
   19.3367   39.5917   50.3496 C   0  0  0  0  0  0  0  0  0  0  0  0
   18.8249   42.9930   52.7822 C   0  0  0  0  0  0  0  0  0  0  0  0
   19.6935   43.7921   53.5192 C   0  0  0  0  0  0  0  0  0  0  0  0
   22.9204   43.5983   58.5295 C   0  0  0  0  0  0  0  0  0  0  0  0
   23.3522   44.3360   59.6272 C   0  0  0  0  0  0  0  0  0  0  0  0
   23.4964   43.7019   60.9057 N   0  0  0  0  0  0  0  0  0  0  0  0
   22.4209   43.0914   61.5636 C   0  0  0  0  0  0  0  0  0  0  0  0
   22.6725   42.1160   62.4490 N   0  0  0  0  0  0  0  0  0  0  0  0
   21.6825   41.4961   63.1080 C   0  0  0  0  0  0  0  0  0  0  0  0
   20.3633   41.8692   62.8723 C   0  0  0  0  0  0  0  0  0  0  0  0
   20.1122   42.8814   61.9523 C   0  0  0  0  0  0  0  0  0  0  0  0
   18.7380   43.2767   61.7001 C   0  0  0  0  0  0  0  0  0  0  0  0
   17.7069   42.6385   62.3814 C   0  0  0  0  0  0  0  0  0  0  0  0
   16.3924   43.0205   62.1378 C   0  0  0  0  0  0  0  0  0  0  0  0
   16.1508   44.0336   61.2161 C   0  0  0  0  0  0  0  0  0  0  0  0
   17.1622   44.6342   60.5714 N   0  0  0  0  0  0  0  0  0  0  0  0
   18.4388   44.2841   60.7888 C   0  0  0  0  0  0  0  0  0  0  0  0
   21.1512   43.4596   61.3278 N   0  0  0  0  0  0  0  0  0  0  0  0
   24.1674   45.9343   61.4823 H   0  0  0  0  0  0  0  0  0  0  0  0
   25.0239   46.8907   60.4731 H   0  0  0  0  0  0  0  0  0  0  0  0
   23.4752   47.2631   60.8328 H   0  0  0  0  0  0  0  0  0  0  0  0
   23.7186   47.2832   58.1511 H   0  0  0  0  0  0  0  0  0  0  0  0
   22.9752   46.0213   56.2546 H   0  0  0  0  0  0  0  0  0  0  0  0
   22.5743   42.5079   56.1643 H   0  0  0  0  0  0  0  0  0  0  0  0
   21.4920   41.3926   54.9417 H   0  0  0  0  0  0  0  0  0  0  0  0
   19.9976   40.0112   53.6736 H   0  0  0  0  0  0  0  0  0  0  0  0
   17.7168   41.2454   51.2164 H   0  0  0  0  0  0  0  0  0  0  0  0
   17.1840   40.5456   52.5923 H   0  0  0  0  0  0  0  0  0  0  0  0
   19.2661   39.1840   52.3336 H   0  0  0  0  0  0  0  0  0  0  0  0
   16.7061   38.8746   51.2566 H   0  0  0  0  0  0  0  0  0  0  0  0
   17.4495   37.9976   52.4163 H   0  0  0  0  0  0  0  0  0  0  0  0
   18.8392   37.0175   50.7070 H   0  0  0  0  0  0  0  0  0  0  0  0
   17.2599   36.6462   50.5211 H   0  0  0  0  0  0  0  0  0  0  0  0
   18.5927   37.4336   48.5798 H   0  0  0  0  0  0  0  0  0  0  0  0
   15.9794   38.4407   49.0611 H   0  0  0  0  0  0  0  0  0  0  0  0
   16.6844   38.3223   47.5929 H   0  0  0  0  0  0  0  0  0  0  0  0
   16.3244   36.9716   48.4371 H   0  0  0  0  0  0  0  0  0  0  0  0
   17.6174   39.9659   49.2427 H   0  0  0  0  0  0  0  0  0  0  0  0
   18.9015   39.5647   48.3171 H   0  0  0  0  0  0  0  0  0  0  0  0
   20.0738   38.9165   50.3222 H   0  0  0  0  0  0  0  0  0  0  0  0
   19.7245   40.5112   50.2863 H   0  0  0  0  0  0  0  0  0  0  0  0
   18.1192   43.4115   52.2105 H   0  0  0  0  0  0  0  0  0  0  0  0
   19.6160   44.7883   53.4806 H   0  0  0  0  0  0  0  0  0  0  0  0
   22.7091   42.6257   58.6262 H   0  0  0  0  0  0  0  0  0  0  0  0
   24.3959   43.6955   61.3426 H   0  0  0  0  0  0  0  0  0  0  0  0
   21.8911   40.7710   63.7642 H   0  0  0  0  0  0  0  0  0  0  0  0
   19.6115   41.4190   63.3541 H   0  0  0  0  0  0  0  0  0  0  0  0
   17.9088   41.9128   63.0391 H   0  0  0  0  0  0  0  0  0  0  0  0
   15.6353   42.5754   62.6161 H   0  0  0  0  0  0  0  0  0  0  0  0
   15.2101   44.3183   61.0314 H   0  0  0  0  0  0  0  0  0  0  0  0
   19.1753   44.7474   60.2959 H   0  0  0  0  0  0  0  0  0  0  0  0
  1  2  1  0  0  0  0
  2  3  2  0  0  0  0
  3  4  1  0  0  0  0
  4  5  2  0  0  0  0
  5  6  1  0  0  0  0
  6  7  1  0  0  0  0
  7  8  2  0  0  0  0
  7  9  1  0  0  0  0
  9 10  2  0  0  0  0
 10 11  1  0  0  0  0
 11 12  2  0  0  0  0
 12 13  1  0  0  0  0
 13 14  1  0  0  0  0
 14 15  1  0  0  0  0
 15 16  1  0  0  0  0
 16 17  1  0  0  0  0
 17 18  1  0  0  0  0
 17 19  1  0  0  0  0
 19 20  1  0  0  0  0
 12 21  1  0  0  0  0
 21 22  2  0  0  0  0
  5 23  1  0  0  0  0
 23 24  2  0  0  0  0
 24 25  1  0  0  0  0
 25 26  1  0  0  0  0
 26 27  2  0  0  0  0
 27 28  1  0  0  0  0
 28 29  2  0  0  0  0
 29 30  1  0  0  0  0
 30 31  1  0  0  0  0
 31 32  2  0  0  0  0
 32 33  1  0  0  0  0
 33 34  2  0  0  0  0
 34 35  1  0  0  0  0
 35 36  2  0  0  0  0
 30 37  2  0  0  0  0
 24  2  1  0  0  0  0
 37 26  1  0  0  0  0
 22  9  1  0  0  0  0
 36 31  1  0  0  0  0
 20 14  1  0  0  0  0
  1 38  1  0  0  0  0
  1 39  1  0  0  0  0
  1 40  1  0  0  0  0
  3 41  1  0  0  0  0
  4 42  1  0  0  0  0
  6 43  1  0  0  0  0
 10 44  1  0  0  0  0
 11 45  1  0  0  0  0
 13 46  1  0  0  0  0
 13 47  1  0  0  0  0
 14 48  1  0  0  0  0
 15 49  1  0  0  0  0
 15 50  1  0  0  0  0
 16 51  1  0  0  0  0
 16 52  1  0  0  0  0
 17 53  1  0  0  0  0
 18 54  1  0  0  0  0
 18 55  1  0  0  0  0
 18 56  1  0  0  0  0
 19 57  1  0  0  0  0
 19 58  1  0  0  0  0
 20 59  1  0  0  0  0
 20 60  1  0  0  0  0
 21 61  1  0  0  0  0
 22 62  1  0  0  0  0
 23 63  1  0  0  0  0
 25 64  1  0  0  0  0
 28 65  1  0  0  0  0
 29 66  1  0  0  0  0
 32 67  1  0  0  0  0
 33 68  1  0  0  0  0
 34 69  1  0  0  0  0
 36 70  1  0  0  0  0
M  CHG  2  14   1  17   1
M  END
>  <docking-score>
-9.48

$$$$
