1FPU_PRC_1
foFlexX   03222115243D 1   1.00000     0.00000     0
FlexX 4.5.0 fol007
 47 50  0  0  0  0            999 V2000
   20.4675   42.2829   51.5959 C   0  0  0  0  0  0  0  0  0  0  0  0
   20.4190   42.8807   52.9926 C   0  0  0  0  0  0  0  0  0  0  0  0
   19.2052   42.8971   53.6715 C   0  0  0  0  0  0  0  0  0  0  0  0
   19.1313   43.4375   54.9514 C   0  0  0  0  0  0  0  0  0  0  0  0
   20.2796   43.9576   55.5394 C   0  0  0  0  0  0  0  0  0  0  0  0
   20.2160   44.5040   56.8268 N   0  0  0  0  0  0  0  0  0  0  0  0
   21.3112   44.4968   57.7560 C   0  0  0  0  0  0  0  0  0  0  0  0
   22.4949   44.5266   57.3206 O   0  0  0  0  0  0  0  0  0  0  0  0
   21.0670   44.4894   59.2190 C   0  0  0  0  0  0  0  0  0  0  0  0
   19.8216   44.8713   59.7063 C   0  0  0  0  0  0  0  0  0  0  0  0
   19.5964   44.8622   61.0784 C   0  0  0  0  0  0  0  0  0  0  0  0
   20.6295   44.4693   61.9226 C   0  0  0  0  0  0  0  0  0  0  0  0
   21.8223   44.1053   61.4286 N   0  0  0  0  0  0  0  0  0  0  0  0
   22.0646   44.1053   60.1091 C   0  0  0  0  0  0  0  0  0  0  0  0
   21.4972   43.9448   54.8668 C   0  0  0  0  0  0  0  0  0  0  0  0
   21.5636   43.4029   53.5871 C   0  0  0  0  0  0  0  0  0  0  0  0
   22.8178   43.3820   52.8774 N   0  0  0  0  0  0  0  0  0  0  0  0
   24.0168   43.8848   53.3986 C   0  0  0  0  0  0  0  0  0  0  0  0
   24.9736   44.2879   52.5496 N   0  0  0  0  0  0  0  0  0  0  0  0
   26.1412   44.7775   52.9919 C   0  0  0  0  0  0  0  0  0  0  0  0
   26.3706   44.8718   54.3606 C   0  0  0  0  0  0  0  0  0  0  0  0
   25.3728   44.4512   55.2332 C   0  0  0  0  0  0  0  0  0  0  0  0
   25.6043   44.5460   56.6635 C   0  0  0  0  0  0  0  0  0  0  0  0
   26.0600   45.7436   57.2045 C   0  0  0  0  0  0  0  0  0  0  0  0
   26.2796   45.8306   58.5747 C   0  0  0  0  0  0  0  0  0  0  0  0
   26.0349   44.7113   59.3631 C   0  0  0  0  0  0  0  0  0  0  0  0
   25.5957   43.5672   58.8180 N   0  0  0  0  0  0  0  0  0  0  0  0
   25.3759   43.4577   57.4991 C   0  0  0  0  0  0  0  0  0  0  0  0
   24.2274   43.9711   54.7220 N   0  0  0  0  0  0  0  0  0  0  0  0
   21.4001   42.3421   51.2401 H   0  0  0  0  0  0  0  0  0  0  0  0
   20.1854   41.3242   51.6336 H   0  0  0  0  0  0  0  0  0  0  0  0
   19.8487   42.7890   50.9950 H   0  0  0  0  0  0  0  0  0  0  0  0
   18.3856   42.5204   53.2397 H   0  0  0  0  0  0  0  0  0  0  0  0
   18.2610   43.4520   55.4438 H   0  0  0  0  0  0  0  0  0  0  0  0
   19.3564   44.9246   57.1169 H   0  0  0  0  0  0  0  0  0  0  0  0
   19.0961   45.1495   59.0769 H   0  0  0  0  0  0  0  0  0  0  0  0
   18.7087   45.1328   61.4510 H   0  0  0  0  0  0  0  0  0  0  0  0
   20.4811   44.4580   62.9114 H   0  0  0  0  0  0  0  0  0  0  0  0
   22.9622   43.8292   59.7655 H   0  0  0  0  0  0  0  0  0  0  0  0
   22.3167   44.3213   55.2988 H   0  0  0  0  0  0  0  0  0  0  0  0
   22.8329   42.9856   51.9595 H   0  0  0  0  0  0  0  0  0  0  0  0
   26.8419   45.0725   52.3423 H   0  0  0  0  0  0  0  0  0  0  0  0
   27.2347   45.2344   54.7097 H   0  0  0  0  0  0  0  0  0  0  0  0
   26.2278   46.5333   56.6145 H   0  0  0  0  0  0  0  0  0  0  0  0
   26.6070   46.6816   58.9854 H   0  0  0  0  0  0  0  0  0  0  0  0
   26.1886   44.7602   60.3501 H   0  0  0  0  0  0  0  0  0  0  0  0
   25.0479   42.5938   57.1168 H   0  0  0  0  0  0  0  0  0  0  0  0
  1  2  1  0  0  0  0
  2  3  2  0  0  0  0
  3  4  1  0  0  0  0
  4  5  2  0  0  0  0
  5  6  1  0  0  0  0
  6  7  1  0  0  0  0
  7  8  2  0  0  0  0
  7  9  1  0  0  0  0
  9 10  2  0  0  0  0
 10 11  1  0  0  0  0
 11 12  2  0  0  0  0
 12 13  1  0  0  0  0
 13 14  2  0  0  0  0
  5 15  1  0  0  0  0
 15 16  2  0  0  0  0
 16 17  1  0  0  0  0
 17 18  1  0  0  0  0
 18 19  2  0  0  0  0
 19 20  1  0  0  0  0
 20 21  2  0  0  0  0
 21 22  1  0  0  0  0
 22 23  1  0  0  0  0
 23 24  2  0  0  0  0
 24 25  1  0  0  0  0
 25 26  2  0  0  0  0
 26 27  1  0  0  0  0
 27 28  2  0  0  0  0
 22 29  2  0  0  0  0
 16  2  1  0  0  0  0
 29 18  1  0  0  0  0
 14  9  1  0  0  0  0
 28 23  1  0  0  0  0
  1 30  1  0  0  0  0
  1 31  1  0  0  0  0
  1 32  1  0  0  0  0
  3 33  1  0  0  0  0
  4 34  1  0  0  0  0
  6 35  1  0  0  0  0
 10 36  1  0  0  0  0
 11 37  1  0  0  0  0
 12 38  1  0  0  0  0
 14 39  1  0  0  0  0
 15 40  1  0  0  0  0
 17 41  1  0  0  0  0
 20 42  1  0  0  0  0
 21 43  1  0  0  0  0
 24 44  1  0  0  0  0
 25 45  1  0  0  0  0
 26 46  1  0  0  0  0
 28 47  1  0  0  0  0
M  END
>  <docking-score>
-18.62

$$$$
1FPU_PRC_2
foFlexX   03222115243D 1   1.00000     0.00000     0
FlexX 4.5.0 fol007
 47 50  0  0  0  0            999 V2000
   20.5530   42.2810   51.5747 C   0  0  0  0  0  0  0  0  0  0  0  0
   20.5085   42.7872   53.0073 C   0  0  0  0  0  0  0  0  0  0  0  0
   19.3071   42.7165   53.7047 C   0  0  0  0  0  0  0  0  0  0  0  0
   19.2370   43.1720   55.0174 C   0  0  0  0  0  0  0  0  0  0  0  0
   20.3766   43.6952   55.6195 C   0  0  0  0  0  0  0  0  0  0  0  0
   20.3168   44.1565   56.9400 N   0  0  0  0  0  0  0  0  0  0  0  0
   21.1122   43.6257   58.0116 C   0  0  0  0  0  0  0  0  0  0  0  0
   22.2530   43.1490   57.7607 O   0  0  0  0  0  0  0  0  0  0  0  0
   20.6238   43.6627   59.4116 C   0  0  0  0  0  0  0  0  0  0  0  0
   21.5015   43.3698   60.4500 C   0  0  0  0  0  0  0  0  0  0  0  0
   21.0400   43.4064   61.7611 C   0  0  0  0  0  0  0  0  0  0  0  0
   19.7088   43.7366   61.9920 C   0  0  0  0  0  0  0  0  0  0  0  0
   18.8814   44.0151   60.9737 N   0  0  0  0  0  0  0  0  0  0  0  0
   19.3022   43.9869   59.7002 C   0  0  0  0  0  0  0  0  0  0  0  0
   21.5817   43.7692   54.9286 C   0  0  0  0  0  0  0  0  0  0  0  0
   21.6443   43.3120   53.6161 C   0  0  0  0  0  0  0  0  0  0  0  0
   22.8856   43.3816   52.8870 N   0  0  0  0  0  0  0  0  0  0  0  0
   24.0752   43.8937   53.4206 C   0  0  0  0  0  0  0  0  0  0  0  0
   25.0019   44.3841   52.5842 N   0  0  0  0  0  0  0  0  0  0  0  0
   26.1593   44.8868   53.0386 C   0  0  0  0  0  0  0  0  0  0  0  0
   26.4096   44.9027   54.4068 C   0  0  0  0  0  0  0  0  0  0  0  0
   25.4430   44.3918   55.2662 C   0  0  0  0  0  0  0  0  0  0  0  0
   25.6965   44.4044   56.6958 C   0  0  0  0  0  0  0  0  0  0  0  0
   26.8943   44.9255   57.1733 C   0  0  0  0  0  0  0  0  0  0  0  0
   27.1329   44.9366   58.5431 C   0  0  0  0  0  0  0  0  0  0  0  0
   26.1606   44.4235   59.3949 C   0  0  0  0  0  0  0  0  0  0  0  0
   25.0130   43.9261   58.9104 N   0  0  0  0  0  0  0  0  0  0  0  0
   24.7588   43.9042   57.5933 C   0  0  0  0  0  0  0  0  0  0  0  0
   24.3063   43.9037   54.7433 N   0  0  0  0  0  0  0  0  0  0  0  0
   21.4765   42.3965   51.2089 H   0  0  0  0  0  0  0  0  0  0  0  0
   20.3056   41.3123   51.5556 H   0  0  0  0  0  0  0  0  0  0  0  0
   19.9062   42.8013   51.0171 H   0  0  0  0  0  0  0  0  0  0  0  0
   18.4937   42.3384   53.2626 H   0  0  0  0  0  0  0  0  0  0  0  0
   18.3757   43.1236   55.5233 H   0  0  0  0  0  0  0  0  0  0  0  0
   19.6820   44.9002   57.1497 H   0  0  0  0  0  0  0  0  0  0  0  0
   22.4540   43.1354   60.2558 H   0  0  0  0  0  0  0  0  0  0  0  0
   21.6533   43.1994   62.5233 H   0  0  0  0  0  0  0  0  0  0  0  0
   19.3638   43.7668   62.9301 H   0  0  0  0  0  0  0  0  0  0  0  0
   18.6659   44.1989   58.9585 H   0  0  0  0  0  0  0  0  0  0  0  0
   22.3950   44.1472   55.3710 H   0  0  0  0  0  0  0  0  0  0  0  0
   22.8983   43.0448   51.9456 H   0  0  0  0  0  0  0  0  0  0  0  0
   26.8375   45.2476   52.3984 H   0  0  0  0  0  0  0  0  0  0  0  0
   27.2665   45.2736   54.7649 H   0  0  0  0  0  0  0  0  0  0  0  0
   27.5765   45.2882   56.5385 H   0  0  0  0  0  0  0  0  0  0  0  0
   27.9871   45.3063   58.9087 H   0  0  0  0  0  0  0  0  0  0  0  0
   26.3192   44.4254   60.3823 H   0  0  0  0  0  0  0  0  0  0  0  0
   23.8953   43.5285   57.2569 H   0  0  0  0  0  0  0  0  0  0  0  0
  1  2  1  0  0  0  0
  2  3  2  0  0  0  0
  3  4  1  0  0  0  0
  4  5  2  0  0  0  0
  5  6  1  0  0  0  0
  6  7  1  0  0  0  0
  7  8  2  0  0  0  0
  7  9  1  0  0  0  0
  9 10  2  0  0  0  0
 10 11  1  0  0  0  0
 11 12  2  0  0  0  0
 12 13  1  0  0  0  0
 13 14  2  0  0  0  0
  5 15  1  0  0  0  0
 15 16  2  0  0  0  0
 16 17  1  0  0  0  0
 17 18  1  0  0  0  0
 18 19  2  0  0  0  0
 19 20  1  0  0  0  0
 20 21  2  0  0  0  0
 21 22  1  0  0  0  0
 22 23  1  0  0  0  0
 23 24  2  0  0  0  0
 24 25  1  0  0  0  0
 25 26  2  0  0  0  0
 26 27  1  0  0  0  0
 27 28  2  0  0  0  0
 22 29  2  0  0  0  0
 16  2  1  0  0  0  0
 29 18  1  0  0  0  0
 14  9  1  0  0  0  0
 28 23  1  0  0  0  0
  1 30  1  0  0  0  0
  1 31  1  0  0  0  0
  1 32  1  0  0  0  0
  3 33  1  0  0  0  0
  4 34  1  0  0  0  0
  6 35  1  0  0  0  0
 10 36  1  0  0  0  0
 11 37  1  0  0  0  0
 12 38  1  0  0  0  0
 14 39  1  0  0  0  0
 15 40  1  0  0  0  0
 17 41  1  0  0  0  0
 20 42  1  0  0  0  0
 21 43  1  0  0  0  0
 24 44  1  0  0  0  0
 25 45  1  0  0  0  0
 26 46  1  0  0  0  0
 28 47  1  0  0  0  0
M  END
>  <docking-score>
-18.31

$$$$
1FPU_PRC_3
foFlexX   03222115243D 1   1.00000     0.00000     0
FlexX 4.5.0 fol007
 47 50  0  0  0  0            999 V2000
   20.4852   42.6284   51.4579 C   0  0  0  0  0  0  0  0  0  0  0  0
   20.4989   43.2535   52.8434 C   0  0  0  0  0  0  0  0  0  0  0  0
   19.2886   43.4531   53.4992 C   0  0  0  0  0  0  0  0  0  0  0  0
   19.2709   44.0229   54.7683 C   0  0  0  0  0  0  0  0  0  0  0  0
   20.4713   44.3877   55.3689 C   0  0  0  0  0  0  0  0  0  0  0  0
   20.4645   44.9620   56.6457 N   0  0  0  0  0  0  0  0  0  0  0  0
   21.6491   45.3713   57.3473 C   0  0  0  0  0  0  0  0  0  0  0  0
   22.6551   45.7598   56.6927 O   0  0  0  0  0  0  0  0  0  0  0  0
   21.6916   45.3753   58.8299 C   0  0  0  0  0  0  0  0  0  0  0  0
   21.1226   44.3188   59.5331 C   0  0  0  0  0  0  0  0  0  0  0  0
   21.1654   44.3257   60.9229 C   0  0  0  0  0  0  0  0  0  0  0  0
   21.7790   45.3947   61.5672 C   0  0  0  0  0  0  0  0  0  0  0  0
   22.3207   46.4023   60.8669 N   0  0  0  0  0  0  0  0  0  0  0  0
   22.2928   46.4189   59.5258 C   0  0  0  0  0  0  0  0  0  0  0  0
   21.6857   44.1912   54.7195 C   0  0  0  0  0  0  0  0  0  0  0  0
   21.6958   43.6211   53.4504 C   0  0  0  0  0  0  0  0  0  0  0  0
   22.9458   43.4108   52.7646 N   0  0  0  0  0  0  0  0  0  0  0  0
   24.1951   43.7501   53.2997 C   0  0  0  0  0  0  0  0  0  0  0  0
   25.2127   43.9986   52.4621 N   0  0  0  0  0  0  0  0  0  0  0  0
   26.4303   44.3276   52.9179 C   0  0  0  0  0  0  0  0  0  0  0  0
   26.6486   44.4149   54.2889 C   0  0  0  0  0  0  0  0  0  0  0  0
   25.5876   44.1552   55.1496 C   0  0  0  0  0  0  0  0  0  0  0  0
   25.8070   44.2438   56.5822 C   0  0  0  0  0  0  0  0  0  0  0  0
   27.0673   44.5858   57.0610 C   0  0  0  0  0  0  0  0  0  0  0  0
   27.2731   44.6705   58.4336 C   0  0  0  0  0  0  0  0  0  0  0  0
   26.2063   44.4090   59.2867 C   0  0  0  0  0  0  0  0  0  0  0  0
   24.9999   44.0809   58.8008 N   0  0  0  0  0  0  0  0  0  0  0  0
   24.7756   43.9929   57.4811 C   0  0  0  0  0  0  0  0  0  0  0  0
   24.3944   43.8311   54.6252 N   0  0  0  0  0  0  0  0  0  0  0  0
   21.4226   42.5493   51.1186 H   0  0  0  0  0  0  0  0  0  0  0  0
   20.0704   41.7197   51.5063 H   0  0  0  0  0  0  0  0  0  0  0  0
   19.9536   43.2049   50.8373 H   0  0  0  0  0  0  0  0  0  0  0  0
   18.4313   43.1871   53.0585 H   0  0  0  0  0  0  0  0  0  0  0  0
   18.4035   44.1687   55.2441 H   0  0  0  0  0  0  0  0  0  0  0  0
   19.5818   45.0952   57.0964 H   0  0  0  0  0  0  0  0  0  0  0  0
   20.6875   43.5625   59.0445 H   0  0  0  0  0  0  0  0  0  0  0  0
   20.7627   43.5766   61.4489 H   0  0  0  0  0  0  0  0  0  0  0  0
   21.8169   45.4123   62.5663 H   0  0  0  0  0  0  0  0  0  0  0  0
   22.7041   47.1815   59.0265 H   0  0  0  0  0  0  0  0  0  0  0  0
   22.5430   44.4571   55.1604 H   0  0  0  0  0  0  0  0  0  0  0  0
   22.9198   42.9987   51.8539 H   0  0  0  0  0  0  0  0  0  0  0  0
   27.1759   44.5090   52.2767 H   0  0  0  0  0  0  0  0  0  0  0  0
   27.5494   44.6591   54.6480 H   0  0  0  0  0  0  0  0  0  0  0  0
   27.8171   44.7687   56.4252 H   0  0  0  0  0  0  0  0  0  0  0  0
   28.1709   44.9146   58.8002 H   0  0  0  0  0  0  0  0  0  0  0  0
   26.3405   44.4664   60.2760 H   0  0  0  0  0  0  0  0  0  0  0  0
   23.8669   43.7468   57.1436 H   0  0  0  0  0  0  0  0  0  0  0  0
  1  2  1  0  0  0  0
  2  3  2  0  0  0  0
  3  4  1  0  0  0  0
  4  5  2  0  0  0  0
  5  6  1  0  0  0  0
  6  7  1  0  0  0  0
  7  8  2  0  0  0  0
  7  9  1  0  0  0  0
  9 10  2  0  0  0  0
 10 11  1  0  0  0  0
 11 12  2  0  0  0  0
 12 13  1  0  0  0  0
 13 14  2  0  0  0  0
  5 15  1  0  0  0  0
 15 16  2  0  0  0  0
 16 17  1  0  0  0  0
 17 18  1  0  0  0  0
 18 19  2  0  0  0  0
 19 20  1  0  0  0  0
 20 21  2  0  0  0  0
 21 22  1  0  0  0  0
 22 23  1  0  0  0  0
 23 24  2  0  0  0  0
 24 25  1  0  0  0  0
 25 26  2  0  0  0  0
 26 27  1  0  0  0  0
 27 28  2  0  0  0  0
 22 29  2  0  0  0  0
 16  2  1  0  0  0  0
 29 18  1  0  0  0  0
 14  9  1  0  0  0  0
 28 23  1  0  0  0  0
  1 30  1  0  0  0  0
  1 31  1  0  0  0  0
  1 32  1  0  0  0  0
  3 33  1  0  0  0  0
  4 34  1  0  0  0  0
  6 35  1  0  0  0  0
 10 36  1  0  0  0  0
 11 37  1  0  0  0  0
 12 38  1  0  0  0  0
 14 39  1  0  0  0  0
 15 40  1  0  0  0  0
 17 41  1  0  0  0  0
 20 42  1  0  0  0  0
 21 43  1  0  0  0  0
 24 44  1  0  0  0  0
 25 45  1  0  0  0  0
 26 46  1  0  0  0  0
 28 47  1  0  0  0  0
M  END
>  <docking-score>
-18.11

$$$$
6HD6_FYH_1
foFlexX   03222115243D 1   1.00000     0.00000     0
FlexX 4.5.0 fol007
 47 49  0  0  0  0            999 V2000
   19.3660   43.0249   55.5133 O   0  0  0  0  0  0  0  0  0  0  0  0
   19.8784   43.9614   54.8409 C   0  0  0  0  0  0  0  0  0  0  0  0
   19.3867   44.2400   53.5188 N   0  0  0  0  0  0  0  0  0  0  0  0
   18.8263   43.2417   52.6482 C   0  0  0  0  0  0  0  0  0  0  0  0
   17.6981   42.5340   53.0509 C   0  0  0  0  0  0  0  0  0  0  0  0
   17.1489   41.5664   52.2153 C   0  0  0  0  0  0  0  0  0  0  0  0
   17.7414   41.3194   50.9813 C   0  0  0  0  0  0  0  0  0  0  0  0
   17.2190   40.3830   50.1620 O   0  0  0  0  0  0  0  0  0  0  0  0
   17.9043   39.2241   49.6923 C   0  0  0  0  0  0  0  0  0  0  0  0
   18.2847   38.4580   50.7770 F   0  0  0  0  0  0  0  0  0  0  0  0
   17.0702   38.4713   48.8852 F   0  0  0  0  0  0  0  0  0  0  0  0
   19.0365   39.5924   48.9877 F   0  0  0  0  0  0  0  0  0  0  0  0
   18.8704   42.0219   50.5706 C   0  0  0  0  0  0  0  0  0  0  0  0
   19.4125   42.9876   51.4121 C   0  0  0  0  0  0  0  0  0  0  0  0
   20.9222   44.7754   55.4323 C   0  0  0  0  0  0  0  0  0  0  0  0
   20.7351   45.3318   56.6934 C   0  0  0  0  0  0  0  0  0  0  0  0
   21.7477   46.1102   57.2451 C   0  0  0  0  0  0  0  0  0  0  0  0
   22.9341   46.3356   56.5546 C   0  0  0  0  0  0  0  0  0  0  0  0
   23.1000   45.7689   55.2947 C   0  0  0  0  0  0  0  0  0  0  0  0
   24.3851   46.0066   54.5354 C   0  0  0  0  0  0  0  0  0  0  0  0
   24.3805   45.3326   53.2281 N   0  3  0  0  0  0  0  0  0  0  0  0
   25.5038   44.3781   53.1937 C   0  0  0  0  0  0  0  0  0  0  0  0
   26.4309   44.6655   52.0200 C   0  0  0  0  0  0  0  0  0  0  0  0
   25.6838   44.7157   50.8130 O   0  0  0  0  0  0  0  0  0  0  0  0
   24.6307   45.6761   50.8333 C   0  0  0  0  0  0  0  0  0  0  0  0
   24.4681   46.3640   52.1820 C   0  0  0  0  0  0  0  0  0  0  0  0
   22.1005   44.9874   54.7242 C   0  0  0  0  0  0  0  0  0  0  0  0
   19.4372   45.1815   53.1856 H   0  0  0  0  0  0  0  0  0  0  0  0
   17.2819   42.7208   53.9408 H   0  0  0  0  0  0  0  0  0  0  0  0
   16.3378   41.0546   52.4985 H   0  0  0  0  0  0  0  0  0  0  0  0
   19.2870   41.8345   49.6810 H   0  0  0  0  0  0  0  0  0  0  0  0
   20.2236   43.4994   51.1288 H   0  0  0  0  0  0  0  0  0  0  0  0
   19.8851   45.1746   57.1962 H   0  0  0  0  0  0  0  0  0  0  0  0
   21.6209   46.5136   58.1513 H   0  0  0  0  0  0  0  0  0  0  0  0
   23.6571   46.8966   56.9578 H   0  0  0  0  0  0  0  0  0  0  0  0
   25.1501   45.6577   55.0767 H   0  0  0  0  0  0  0  0  0  0  0  0
   24.4992   46.9897   54.3921 H   0  0  0  0  0  0  0  0  0  0  0  0
   23.5219   44.8311   53.1217 H   0  0  0  0  0  0  0  0  0  0  0  0
   25.1416   43.4503   53.1044 H   0  0  0  0  0  0  0  0  0  0  0  0
   26.0223   44.4530   54.0455 H   0  0  0  0  0  0  0  0  0  0  0  0
   26.8861   45.5441   52.1646 H   0  0  0  0  0  0  0  0  0  0  0  0
   27.1174   43.9412   51.9549 H   0  0  0  0  0  0  0  0  0  0  0  0
   23.7738   45.2123   50.6083 H   0  0  0  0  0  0  0  0  0  0  0  0
   24.8236   46.3732   50.1427 H   0  0  0  0  0  0  0  0  0  0  0  0
   25.2562   46.9544   52.3562 H   0  0  0  0  0  0  0  0  0  0  0  0
   23.6331   46.9144   52.1809 H   0  0  0  0  0  0  0  0  0  0  0  0
   22.2273   44.5838   53.8181 H   0  0  0  0  0  0  0  0  0  0  0  0
  1  2  2  0  0  0  0
  2  3  1  0  0  0  0
  3  4  1  0  0  0  0
  4  5  2  0  0  0  0
  5  6  1  0  0  0  0
  6  7  2  0  0  0  0
  7  8  1  0  0  0  0
  8  9  1  0  0  0  0
  9 10  1  0  0  0  0
  9 11  1  0  0  0  0
  9 12  1  0  0  0  0
  7 13  1  0  0  0  0
 13 14  2  0  0  0  0
  2 15  1  0  0  0  0
 15 16  2  0  0  0  0
 16 17  1  0  0  0  0
 17 18  2  0  0  0  0
 18 19  1  0  0  0  0
 19 20  1  0  0  0  0
 20 21  1  0  0  0  0
 21 22  1  0  0  0  0
 22 23  1  0  0  0  0
 23 24  1  0  0  0  0
 24 25  1  0  0  0  0
 25 26  1  0  0  0  0
 19 27  2  0  0  0  0
 14  4  1  0  0  0  0
 27 15  1  0  0  0  0
 26 21  1  0  0  0  0
  3 28  1  0  0  0  0
  5 29  1  0  0  0  0
  6 30  1  0  0  0  0
 13 31  1  0  0  0  0
 14 32  1  0  0  0  0
 16 33  1  0  0  0  0
 17 34  1  0  0  0  0
 18 35  1  0  0  0  0
 20 36  1  0  0  0  0
 20 37  1  0  0  0  0
 21 38  1  0  0  0  0
 22 39  1  0  0  0  0
 22 40  1  0  0  0  0
 23 41  1  0  0  0  0
 23 42  1  0  0  0  0
 25 43  1  0  0  0  0
 25 44  1  0  0  0  0
 26 45  1  0  0  0  0
 26 46  1  0  0  0  0
 27 47  1  0  0  0  0
M  CHG  1  21   1
M  END
>  <docking-score>
-19.88

$$$$
6HD6_FYH_2
foFlexX   03222115243D 1   1.00000     0.00000     0
FlexX 4.5.0 fol007
 47 49  0  0  0  0            999 V2000
   18.7794   43.6985   54.7803 O   0  0  0  0  0  0  0  0  0  0  0  0
   19.8228   44.1100   54.2026 C   0  0  0  0  0  0  0  0  0  0  0  0
   19.9504   43.9681   52.7775 N   0  0  0  0  0  0  0  0  0  0  0  0
   19.3412   42.9059   52.0230 C   0  0  0  0  0  0  0  0  0  0  0  0
   17.9577   42.7595   52.0364 C   0  0  0  0  0  0  0  0  0  0  0  0
   17.3595   41.7348   51.3094 C   0  0  0  0  0  0  0  0  0  0  0  0
   18.1603   40.8660   50.5756 C   0  0  0  0  0  0  0  0  0  0  0  0
   17.5926   39.8678   49.8669 O   0  0  0  0  0  0  0  0  0  0  0  0
   17.3293   38.5551   50.3577 C   0  0  0  0  0  0  0  0  0  0  0  0
   16.4747   38.6441   51.4393 F   0  0  0  0  0  0  0  0  0  0  0  0
   16.7267   37.7904   49.3749 F   0  0  0  0  0  0  0  0  0  0  0  0
   18.5062   37.9544   50.7678 F   0  0  0  0  0  0  0  0  0  0  0  0
   19.5450   41.0045   50.5568 C   0  0  0  0  0  0  0  0  0  0  0  0
   20.1344   42.0318   51.2862 C   0  0  0  0  0  0  0  0  0  0  0  0
   20.8564   44.7660   54.9795 C   0  0  0  0  0  0  0  0  0  0  0  0
   20.5484   45.3087   56.2227 C   0  0  0  0  0  0  0  0  0  0  0  0
   21.5530   45.9345   56.9540 C   0  0  0  0  0  0  0  0  0  0  0  0
   22.8501   46.0220   56.4590 C   0  0  0  0  0  0  0  0  0  0  0  0
   23.1359   45.4718   55.2133 C   0  0  0  0  0  0  0  0  0  0  0  0
   24.5418   45.5606   54.6656 C   0  0  0  0  0  0  0  0  0  0  0  0
   24.6543   44.9274   53.3430 N   0  3  0  0  0  0  0  0  0  0  0  0
   24.3772   45.9371   52.3109 C   0  0  0  0  0  0  0  0  0  0  0  0
   24.6284   45.3503   50.9290 C   0  0  0  0  0  0  0  0  0  0  0  0
   25.8998   44.7112   50.8247 O   0  0  0  0  0  0  0  0  0  0  0  0
   26.7170   44.8427   51.9863 C   0  0  0  0  0  0  0  0  0  0  0  0
   25.9834   44.3179   53.2116 C   0  0  0  0  0  0  0  0  0  0  0  0
   22.1466   44.8417   54.4652 C   0  0  0  0  0  0  0  0  0  0  0  0
   20.4935   44.6465   52.2828 H   0  0  0  0  0  0  0  0  0  0  0  0
   17.3932   43.3905   52.5685 H   0  0  0  0  0  0  0  0  0  0  0  0
   16.3656   41.6244   51.3144 H   0  0  0  0  0  0  0  0  0  0  0  0
   20.1095   40.3729   50.0253 H   0  0  0  0  0  0  0  0  0  0  0  0
   21.1283   42.1421   51.2811 H   0  0  0  0  0  0  0  0  0  0  0  0
   19.6184   45.2500   56.5855 H   0  0  0  0  0  0  0  0  0  0  0  0
   21.3395   46.3270   57.8486 H   0  0  0  0  0  0  0  0  0  0  0  0
   23.5666   46.4738   56.9905 H   0  0  0  0  0  0  0  0  0  0  0  0
   25.1651   45.1013   55.2984 H   0  0  0  0  0  0  0  0  0  0  0  0
   24.7977   46.5240   54.5859 H   0  0  0  0  0  0  0  0  0  0  0  0
   23.9651   44.2059   53.2758 H   0  0  0  0  0  0  0  0  0  0  0  0
   24.9760   46.7259   52.4498 H   0  0  0  0  0  0  0  0  0  0  0  0
   23.4226   46.2272   52.3791 H   0  0  0  0  0  0  0  0  0  0  0  0
   23.9152   44.6775   50.7326 H   0  0  0  0  0  0  0  0  0  0  0  0
   24.5851   46.0882   50.2554 H   0  0  0  0  0  0  0  0  0  0  0  0
   26.9411   45.8074   52.1243 H   0  0  0  0  0  0  0  0  0  0  0  0
   27.5596   44.3199   51.8575 H   0  0  0  0  0  0  0  0  0  0  0  0
   25.8799   43.3267   53.1289 H   0  0  0  0  0  0  0  0  0  0  0  0
   26.5206   44.5300   54.0279 H   0  0  0  0  0  0  0  0  0  0  0  0
   22.3599   44.4490   53.5707 H   0  0  0  0  0  0  0  0  0  0  0  0
  1  2  2  0  0  0  0
  2  3  1  0  0  0  0
  3  4  1  0  0  0  0
  4  5  2  0  0  0  0
  5  6  1  0  0  0  0
  6  7  2  0  0  0  0
  7  8  1  0  0  0  0
  8  9  1  0  0  0  0
  9 10  1  0  0  0  0
  9 11  1  0  0  0  0
  9 12  1  0  0  0  0
  7 13  1  0  0  0  0
 13 14  2  0  0  0  0
  2 15  1  0  0  0  0
 15 16  2  0  0  0  0
 16 17  1  0  0  0  0
 17 18  2  0  0  0  0
 18 19  1  0  0  0  0
 19 20  1  0  0  0  0
 20 21  1  0  0  0  0
 21 22  1  0  0  0  0
 22 23  1  0  0  0  0
 23 24  1  0  0  0  0
 24 25  1  0  0  0  0
 25 26  1  0  0  0  0
 19 27  2  0  0  0  0
 14  4  1  0  0  0  0
 27 15  1  0  0  0  0
 26 21  1  0  0  0  0
  3 28  1  0  0  0  0
  5 29  1  0  0  0  0
  6 30  1  0  0  0  0
 13 31  1  0  0  0  0
 14 32  1  0  0  0  0
 16 33  1  0  0  0  0
 17 34  1  0  0  0  0
 18 35  1  0  0  0  0
 20 36  1  0  0  0  0
 20 37  1  0  0  0  0
 21 38  1  0  0  0  0
 22 39  1  0  0  0  0
 22 40  1  0  0  0  0
 23 41  1  0  0  0  0
 23 42  1  0  0  0  0
 25 43  1  0  0  0  0
 25 44  1  0  0  0  0
 26 45  1  0  0  0  0
 26 46  1  0  0  0  0
 27 47  1  0  0  0  0
M  CHG  1  21   1
M  END
>  <docking-score>
-17.41

$$$$
6HD6_FYH_3
foFlexX   03222115243D 1   1.00000     0.00000     0
FlexX 4.5.0 fol007
 47 49  0  0  0  0            999 V2000
   21.7205   43.2388   53.6051 O   0  0  0  0  0  0  0  0  0  0  0  0
   20.8295   43.3921   54.4856 C   0  0  0  0  0  0  0  0  0  0  0  0
   19.6331   42.5962   54.4337 N   0  0  0  0  0  0  0  0  0  0  0  0
   19.0565   42.0997   53.2132 C   0  0  0  0  0  0  0  0  0  0  0  0
   19.8814   41.8153   52.1295 C   0  0  0  0  0  0  0  0  0  0  0  0
   19.3325   41.3344   50.9447 C   0  0  0  0  0  0  0  0  0  0  0  0
   17.9571   41.1448   50.8616 C   0  0  0  0  0  0  0  0  0  0  0  0
   17.4123   40.6797   49.7180 O   0  0  0  0  0  0  0  0  0  0  0  0
   17.7184   39.4270   49.1093 C   0  0  0  0  0  0  0  0  0  0  0  0
   17.4089   38.4116   49.9932 F   0  0  0  0  0  0  0  0  0  0  0  0
   16.9690   39.2602   47.9585 F   0  0  0  0  0  0  0  0  0  0  0  0
   19.0670   39.3601   48.8081 F   0  0  0  0  0  0  0  0  0  0  0  0
   17.1242   41.4272   51.9402 C   0  0  0  0  0  0  0  0  0  0  0  0
   17.6815   41.9072   53.1208 C   0  0  0  0  0  0  0  0  0  0  0  0
   21.0540   44.3559   55.5906 C   0  0  0  0  0  0  0  0  0  0  0  0
   21.4688   45.6525   55.3046 C   0  0  0  0  0  0  0  0  0  0  0  0
   21.6744   46.5427   56.3538 C   0  0  0  0  0  0  0  0  0  0  0  0
   21.4714   46.1526   57.6736 C   0  0  0  0  0  0  0  0  0  0  0  0
   21.0561   44.8509   57.9366 C   0  0  0  0  0  0  0  0  0  0  0  0
   20.8306   44.4135   59.3754 C   0  0  0  0  0  0  0  0  0  0  0  0
   19.4360   44.6568   59.8129 N   0  3  0  0  0  0  0  0  0  0  0  0
   19.3851   45.5696   60.9656 C   0  0  0  0  0  0  0  0  0  0  0  0
   17.9606   45.7551   61.4634 C   0  0  0  0  0  0  0  0  0  0  0  0
   17.0276   45.0214   60.6781 O   0  0  0  0  0  0  0  0  0  0  0  0
   17.3358   43.6349   60.5949 C   0  0  0  0  0  0  0  0  0  0  0  0
   18.7698   43.3903   60.1541 C   0  0  0  0  0  0  0  0  0  0  0  0
   20.8446   43.9445   56.9027 C   0  0  0  0  0  0  0  0  0  0  0  0
   19.1760   42.3754   55.2952 H   0  0  0  0  0  0  0  0  0  0  0  0
   20.8688   41.9565   52.2020 H   0  0  0  0  0  0  0  0  0  0  0  0
   19.9199   41.1276   50.1623 H   0  0  0  0  0  0  0  0  0  0  0  0
   16.1368   41.2866   51.8674 H   0  0  0  0  0  0  0  0  0  0  0  0
   17.0940   42.1139   53.9032 H   0  0  0  0  0  0  0  0  0  0  0  0
   21.6170   45.9406   54.3585 H   0  0  0  0  0  0  0  0  0  0  0  0
   21.9725   47.4766   56.1563 H   0  0  0  0  0  0  0  0  0  0  0  0
   21.6218   46.7983   58.4223 H   0  0  0  0  0  0  0  0  0  0  0  0
   21.4503   44.9256   59.9701 H   0  0  0  0  0  0  0  0  0  0  0  0
   21.0277   43.4361   59.4511 H   0  0  0  0  0  0  0  0  0  0  0  0
   18.9384   45.0794   59.0555 H   0  0  0  0  0  0  0  0  0  0  0  0
   19.7530   46.4587   60.6932 H   0  0  0  0  0  0  0  0  0  0  0  0
   19.9416   45.1911   61.7053 H   0  0  0  0  0  0  0  0  0  0  0  0
   17.9050   45.4400   62.4109 H   0  0  0  0  0  0  0  0  0  0  0  0
   17.7266   46.7264   61.4209 H   0  0  0  0  0  0  0  0  0  0  0  0
   16.7186   43.2069   59.9347 H   0  0  0  0  0  0  0  0  0  0  0  0
   17.2006   43.2204   61.4949 H   0  0  0  0  0  0  0  0  0  0  0  0
   19.2701   42.9468   60.8977 H   0  0  0  0  0  0  0  0  0  0  0  0
   18.7686   42.7941   59.3512 H   0  0  0  0  0  0  0  0  0  0  0  0
   20.5464   43.0106   57.1000 H   0  0  0  0  0  0  0  0  0  0  0  0
  1  2  2  0  0  0  0
  2  3  1  0  0  0  0
  3  4  1  0  0  0  0
  4  5  2  0  0  0  0
  5  6  1  0  0  0  0
  6  7  2  0  0  0  0
  7  8  1  0  0  0  0
  8  9  1  0  0  0  0
  9 10  1  0  0  0  0
  9 11  1  0  0  0  0
  9 12  1  0  0  0  0
  7 13  1  0  0  0  0
 13 14  2  0  0  0  0
  2 15  1  0  0  0  0
 15 16  2  0  0  0  0
 16 17  1  0  0  0  0
 17 18  2  0  0  0  0
 18 19  1  0  0  0  0
 19 20  1  0  0  0  0
 20 21  1  0  0  0  0
 21 22  1  0  0  0  0
 22 23  1  0  0  0  0
 23 24  1  0  0  0  0
 24 25  1  0  0  0  0
 25 26  1  0  0  0  0
 19 27  2  0  0  0  0
 14  4  1  0  0  0  0
 27 15  1  0  0  0  0
 26 21  1  0  0  0  0
  3 28  1  0  0  0  0
  5 29  1  0  0  0  0
  6 30  1  0  0  0  0
 13 31  1  0  0  0  0
 14 32  1  0  0  0  0
 16 33  1  0  0  0  0
 17 34  1  0  0  0  0
 18 35  1  0  0  0  0
 20 36  1  0  0  0  0
 20 37  1  0  0  0  0
 21 38  1  0  0  0  0
 22 39  1  0  0  0  0
 22 40  1  0  0  0  0
 23 41  1  0  0  0  0
 23 42  1  0  0  0  0
 25 43  1  0  0  0  0
 25 44  1  0  0  0  0
 26 45  1  0  0  0  0
 26 46  1  0  0  0  0
 27 47  1  0  0  0  0
M  CHG  1  21   1
M  END
>  <docking-score>
-17.39

$$$$
6HD4_FYW_1
foFlexX   03222115243D 1   1.00000     0.00000     0
FlexX 4.5.0 fol007
 50 53  0  0  0  0            999 V2000
   21.6977   43.5596   53.5311 O   0  0  0  0  0  0  0  0  0  0  0  0
   20.9240   43.5774   54.5279 C   0  0  0  0  0  0  0  0  0  0  0  0
   19.7763   42.7119   54.5542 N   0  0  0  0  0  0  0  0  0  0  0  0
   19.0704   42.2847   53.3760 C   0  0  0  0  0  0  0  0  0  0  0  0
   18.4336   41.0477   53.3673 C   0  0  0  0  0  0  0  0  0  0  0  0
   17.7481   40.6261   52.2321 C   0  0  0  0  0  0  0  0  0  0  0  0
   17.7107   41.4541   51.1151 C   0  0  0  0  0  0  0  0  0  0  0  0
   17.0499   41.0566   50.0076 O   0  0  0  0  0  0  0  0  0  0  0  0
   17.3437   39.8856   49.2489 C   0  0  0  0  0  0  0  0  0  0  0  0
   17.2135   38.7589   50.0410 F   0  0  0  0  0  0  0  0  0  0  0  0
   18.6275   39.9578   48.7384 F   0  0  0  0  0  0  0  0  0  0  0  0
   16.4512   39.7969   48.1983 F   0  0  0  0  0  0  0  0  0  0  0  0
   18.3452   42.6928   51.1146 C   0  0  0  0  0  0  0  0  0  0  0  0
   19.0278   43.1062   52.2538 C   0  0  0  0  0  0  0  0  0  0  0  0
   21.2404   44.4541   55.6814 C   0  0  0  0  0  0  0  0  0  0  0  0
   20.2940   45.3166   56.2254 C   0  0  0  0  0  0  0  0  0  0  0  0
   20.5962   46.1027   57.2696 N   0  0  0  0  0  0  0  0  0  0  0  0
   21.8163   46.0885   57.8271 C   0  0  0  0  0  0  0  0  0  0  0  0
   22.0978   46.9223   58.9162 N   0  0  0  0  0  0  0  0  0  0  0  0
   21.9204   46.5627   60.3277 C   0  0  0  0  0  0  0  0  0  0  0  0
   23.1068   47.2431   60.9771 C   0  0  0  0  0  0  0  0  0  0  0  0
   23.2829   48.5371   60.1960 C   0  0  2  0  0  0  0  0  0  0  0  0
   22.6195   49.6150   60.8403 O   0  0  0  0  0  0  0  0  0  0  0  0
   22.6188   48.2845   58.8546 C   0  0  0  0  0  0  0  0  0  0  0  0
   22.8020   45.2454   57.3232 C   0  0  0  0  0  0  0  0  0  0  0  0
   24.1321   45.2029   57.8995 C   0  0  0  0  0  0  0  0  0  0  0  0
   24.7229   43.9920   58.2439 C   0  0  0  0  0  0  0  0  0  0  0  0
   25.9546   43.9742   58.7732 N   0  0  0  0  0  0  0  0  0  0  0  0
   26.6375   45.1098   58.9815 C   0  0  0  0  0  0  0  0  0  0  0  0
   26.0903   46.2903   58.6572 N   0  0  0  0  0  0  0  0  0  0  0  0
   24.8632   46.3640   58.1243 C   0  0  0  0  0  0  0  0  0  0  0  0
   22.5133   44.4205   56.2412 C   0  0  0  0  0  0  0  0  0  0  0  0
   19.4502   42.3883   55.4424 H   0  0  0  0  0  0  0  0  0  0  0  0
   18.4685   40.4616   54.1768 H   0  0  0  0  0  0  0  0  0  0  0  0
   17.2880   39.7384   52.2194 H   0  0  0  0  0  0  0  0  0  0  0  0
   18.3109   43.2785   50.3048 H   0  0  0  0  0  0  0  0  0  0  0  0
   19.4879   43.9940   52.2664 H   0  0  0  0  0  0  0  0  0  0  0  0
   19.3752   45.3511   55.8322 H   0  0  0  0  0  0  0  0  0  0  0  0
   21.9540   45.5717   60.4573 H   0  0  0  0  0  0  0  0  0  0  0  0
   21.0569   46.9168   60.6871 H   0  0  0  0  0  0  0  0  0  0  0  0
   22.9199   47.4350   61.9405 H   0  0  0  0  0  0  0  0  0  0  0  0
   23.9247   46.6724   60.9035 H   0  0  0  0  0  0  0  0  0  0  0  0
   24.2535   48.7445   60.0740 H   0  0  0  0  0  0  0  0  0  0  0  0
   21.6598   49.6314   60.5596 H   0  0  0  0  0  0  0  0  0  0  0  0
   21.8741   48.9353   58.7071 H   0  0  0  0  0  0  0  0  0  0  0  0
   23.2863   48.3684   58.1147 H   0  0  0  0  0  0  0  0  0  0  0  0
   24.2292   43.1348   58.0969 H   0  0  0  0  0  0  0  0  0  0  0  0
   27.5547   45.0760   59.3787 H   0  0  0  0  0  0  0  0  0  0  0  0
   24.4732   47.2541   57.8882 H   0  0  0  0  0  0  0  0  0  0  0  0
   23.2130   43.8101   55.8699 H   0  0  0  0  0  0  0  0  0  0  0  0
  1  2  2  0  0  0  0
  2  3  1  0  0  0  0
  3  4  1  0  0  0  0
  4  5  2  0  0  0  0
  5  6  1  0  0  0  0
  6  7  2  0  0  0  0
  7  8  1  0  0  0  0
  8  9  1  0  0  0  0
  9 10  1  0  0  0  0
  9 11  1  0  0  0  0
  9 12  1  0  0  0  0
  7 13  1  0  0  0  0
 13 14  2  0  0  0  0
  2 15  1  0  0  0  0
 15 16  2  0  0  0  0
 16 17  1  0  0  0  0
 17 18  2  0  0  0  0
 18 19  1  0  0  0  0
 19 20  1  0  0  0  0
 20 21  1  0  0  0  0
 21 22  1  0  0  0  0
 22 23  1  0  0  0  0
 22 24  1  0  0  0  0
 18 25  1  0  0  0  0
 25 26  1  0  0  0  0
 26 27  2  0  0  0  0
 27 28  1  0  0  0  0
 28 29  2  0  0  0  0
 29 30  1  0  0  0  0
 30 31  2  0  0  0  0
 25 32  2  0  0  0  0
 14  4  1  0  0  0  0
 32 15  1  0  0  0  0
 24 19  1  0  0  0  0
 31 26  1  0  0  0  0
  3 33  1  0  0  0  0
  5 34  1  0  0  0  0
  6 35  1  0  0  0  0
 13 36  1  0  0  0  0
 14 37  1  0  0  0  0
 16 38  1  0  0  0  0
 20 39  1  0  0  0  0
 20 40  1  0  0  0  0
 21 41  1  0  0  0  0
 21 42  1  0  0  0  0
 22 43  1  0  0  0  0
 23 44  1  0  0  0  0
 24 45  1  0  0  0  0
 24 46  1  0  0  0  0
 27 47  1  0  0  0  0
 29 48  1  0  0  0  0
 31 49  1  0  0  0  0
 32 50  1  0  0  0  0
M  END
>  <docking-score>
-10.57

$$$$
2QOH_P3Y_1
foFlexX   03222115243D 1   1.00000     0.00000     0
FlexX 4.5.0 fol007
 48 51  0  0  0  0            999 V2000
   22.9756   47.4682   58.8711 C   0  0  0  0  0  0  0  0  0  0  0  0
   21.8571   46.6134   59.0836 O   0  0  0  0  0  0  0  0  0  0  0  0
   21.8388   45.5726   59.9438 C   0  0  0  0  0  0  0  0  0  0  0  0
   22.6316   45.6376   61.0848 C   0  0  0  0  0  0  0  0  0  0  0  0
   22.6350   44.5815   61.9906 C   0  0  0  0  0  0  0  0  0  0  0  0
   21.8459   43.4604   61.7551 C   0  0  0  0  0  0  0  0  0  0  0  0
   21.0525   43.3951   60.6142 C   0  0  0  0  0  0  0  0  0  0  0  0
   21.0493   44.4510   59.7082 C   0  0  0  0  0  0  0  0  0  0  0  0
   20.2224   44.3828   58.5179 C   0  0  0  0  0  0  0  0  0  0  0  0
   18.8592   44.3519   58.5120 C   0  0  0  0  0  0  0  0  0  0  0  0
   18.4690   44.2885   57.2072 N   0  0  0  0  0  0  0  0  0  0  0  0
   19.5765   44.2763   56.3931 C   0  0  0  0  0  0  0  0  0  0  0  0
   19.7617   44.2230   55.0640 N   0  0  0  0  0  0  0  0  0  0  0  0
   20.9854   44.2307   54.5112 C   0  0  0  0  0  0  0  0  0  0  0  0
   22.1373   44.2946   55.2907 C   0  0  0  0  0  0  0  0  0  0  0  0
   23.4762   44.3079   54.7343 C   0  0  0  0  0  0  0  0  0  0  0  0
   24.5556   43.7721   55.4290 C   0  0  0  0  0  0  0  0  0  0  0  0
   25.7873   43.7931   54.8981 N   0  0  0  0  0  0  0  0  0  0  0  0
   26.0189   44.3263   53.6892 C   0  0  0  0  0  0  0  0  0  0  0  0
   24.9760   44.8758   52.9514 C   0  0  0  0  0  0  0  0  0  0  0  0
   25.2092   45.4685   51.6173 C   0  0  0  0  0  0  0  0  0  0  0  0
   25.6820   44.7381   50.7031 O   0  0  0  0  0  0  0  0  0  0  0  0
   24.9203   46.8539   51.3413 N   0  0  0  0  0  0  0  0  0  0  0  0
   24.5359   47.2432   49.9822 C   0  0  0  0  0  0  0  0  0  0  0  0
   25.1644   47.8810   52.3599 C   0  0  0  0  0  0  0  0  0  0  0  0
   23.6891   44.8670   53.4788 C   0  0  0  0  0  0  0  0  0  0  0  0
   21.9830   44.3497   56.6698 C   0  0  0  0  0  0  0  0  0  0  0  0
   20.6931   44.3390   57.1850 C   0  0  0  0  0  0  0  0  0  0  0  0
   23.7510   46.9276   58.5448 H   0  0  0  0  0  0  0  0  0  0  0  0
   22.7412   48.1605   58.1886 H   0  0  0  0  0  0  0  0  0  0  0  0
   23.2202   47.9170   59.7306 H   0  0  0  0  0  0  0  0  0  0  0  0
   23.1991   46.4433   61.2541 H   0  0  0  0  0  0  0  0  0  0  0  0
   23.2047   44.6284   62.8111 H   0  0  0  0  0  0  0  0  0  0  0  0
   21.8490   42.7013   62.4060 H   0  0  0  0  0  0  0  0  0  0  0  0
   20.4846   42.5895   60.4453 H   0  0  0  0  0  0  0  0  0  0  0  0
   18.2598   44.3719   59.3123 H   0  0  0  0  0  0  0  0  0  0  0  0
   17.5210   44.2558   56.8905 H   0  0  0  0  0  0  0  0  0  0  0  0
   21.0714   44.1896   53.5158 H   0  0  0  0  0  0  0  0  0  0  0  0
   24.4121   43.3675   56.3322 H   0  0  0  0  0  0  0  0  0  0  0  0
   26.9468   44.3286   53.3164 H   0  0  0  0  0  0  0  0  0  0  0  0
   23.7028   46.7566   49.7191 H   0  0  0  0  0  0  0  0  0  0  0  0
   24.3698   48.2289   49.9522 H   0  0  0  0  0  0  0  0  0  0  0  0
   25.2727   47.0100   49.3476 H   0  0  0  0  0  0  0  0  0  0  0  0
   26.1342   47.8846   52.6040 H   0  0  0  0  0  0  0  0  0  0  0  0
   24.9087   48.7773   51.9975 H   0  0  0  0  0  0  0  0  0  0  0  0
   24.6169   47.6814   53.1725 H   0  0  0  0  0  0  0  0  0  0  0  0
   22.9271   45.2574   52.9622 H   0  0  0  0  0  0  0  0  0  0  0  0
   22.7779   44.3958   57.2747 H   0  0  0  0  0  0  0  0  0  0  0  0
  1  2  1  0  0  0  0
  2  3  1  0  0  0  0
  3  4  2  0  0  0  0
  4  5  1  0  0  0  0
  5  6  2  0  0  0  0
  6  7  1  0  0  0  0
  7  8  2  0  0  0  0
  8  9  1  0  0  0  0
  9 10  2  0  0  0  0
 10 11  1  0  0  0  0
 11 12  1  0  0  0  0
 12 13  2  0  0  0  0
 13 14  1  0  0  0  0
 14 15  2  0  0  0  0
 15 16  1  0  0  0  0
 16 17  2  0  0  0  0
 17 18  1  0  0  0  0
 18 19  2  0  0  0  0
 19 20  1  0  0  0  0
 20 21  1  0  0  0  0
 21 22  2  0  0  0  0
 21 23  1  0  0  0  0
 23 24  1  0  0  0  0
 23 25  1  0  0  0  0
 20 26  2  0  0  0  0
 15 27  1  0  0  0  0
 27 28  2  0  0  0  0
  8  3  1  0  0  0  0
 28  9  1  0  0  0  0
 28 12  1  0  0  0  0
 26 16  1  0  0  0  0
  1 29  1  0  0  0  0
  1 30  1  0  0  0  0
  1 31  1  0  0  0  0
  4 32  1  0  0  0  0
  5 33  1  0  0  0  0
  6 34  1  0  0  0  0
  7 35  1  0  0  0  0
 10 36  1  0  0  0  0
 11 37  1  0  0  0  0
 14 38  1  0  0  0  0
 17 39  1  0  0  0  0
 19 40  1  0  0  0  0
 24 41  1  0  0  0  0
 24 42  1  0  0  0  0
 24 43  1  0  0  0  0
 25 44  1  0  0  0  0
 25 45  1  0  0  0  0
 25 46  1  0  0  0  0
 26 47  1  0  0  0  0
 27 48  1  0  0  0  0
M  END
>  <docking-score>
-14.15

$$$$
2QOH_P3Y_2
foFlexX   03222115243D 1   1.00000     0.00000     0
FlexX 4.5.0 fol007
 48 51  0  0  0  0            999 V2000
   22.0121   47.4498   58.9864 C   0  0  0  0  0  0  0  0  0  0  0  0
   21.8028   46.1384   58.4732 O   0  0  0  0  0  0  0  0  0  0  0  0
   21.7222   45.0221   59.2288 C   0  0  0  0  0  0  0  0  0  0  0  0
   22.4317   44.9744   60.4242 C   0  0  0  0  0  0  0  0  0  0  0  0
   22.3694   43.8385   61.2253 C   0  0  0  0  0  0  0  0  0  0  0  0
   21.5980   42.7504   60.8307 C   0  0  0  0  0  0  0  0  0  0  0  0
   20.8878   42.7978   59.6353 C   0  0  0  0  0  0  0  0  0  0  0  0
   20.9503   43.9335   58.8341 C   0  0  0  0  0  0  0  0  0  0  0  0
   20.2102   43.9829   57.5871 C   0  0  0  0  0  0  0  0  0  0  0  0
   18.8508   43.9631   57.4818 C   0  0  0  0  0  0  0  0  0  0  0  0
   18.5545   44.0246   56.1523 N   0  0  0  0  0  0  0  0  0  0  0  0
   19.7172   44.0799   55.4212 C   0  0  0  0  0  0  0  0  0  0  0  0
   19.9966   44.1492   54.1094 N   0  0  0  0  0  0  0  0  0  0  0  0
   21.2565   44.1990   53.6479 C   0  0  0  0  0  0  0  0  0  0  0  0
   22.3501   44.1811   54.5096 C   0  0  0  0  0  0  0  0  0  0  0  0
   23.7283   44.2360   54.0520 C   0  0  0  0  0  0  0  0  0  0  0  0
   24.0406   44.3111   52.6986 C   0  0  0  0  0  0  0  0  0  0  0  0
   25.3189   44.3612   52.2949 N   0  0  0  0  0  0  0  0  0  0  0  0
   26.3315   44.3415   53.1744 C   0  0  0  0  0  0  0  0  0  0  0  0
   26.0761   44.2671   54.5395 C   0  0  0  0  0  0  0  0  0  0  0  0
   27.1559   44.2446   55.5066 C   0  0  0  0  0  0  0  0  0  0  0  0
   28.2597   43.7337   55.1716 O   0  0  0  0  0  0  0  0  0  0  0  0
   26.9954   44.7797   56.8359 N   0  0  0  0  0  0  0  0  0  0  0  0
   28.1636   45.3323   57.5261 C   0  0  0  0  0  0  0  0  0  0  0  0
   25.7230   44.6265   57.5499 C   0  0  0  0  0  0  0  0  0  0  0  0
   24.7596   44.2139   54.9848 C   0  0  0  0  0  0  0  0  0  0  0  0
   22.0979   44.1086   55.8733 C   0  0  0  0  0  0  0  0  0  0  0  0
   20.7746   44.0599   56.2926 C   0  0  0  0  0  0  0  0  0  0  0  0
   22.8820   47.4802   59.4786 H   0  0  0  0  0  0  0  0  0  0  0  0
   22.0337   48.1041   58.2305 H   0  0  0  0  0  0  0  0  0  0  0  0
   21.2675   47.6862   59.6107 H   0  0  0  0  0  0  0  0  0  0  0  0
   22.9865   45.7565   60.7079 H   0  0  0  0  0  0  0  0  0  0  0  0
   22.8794   43.8044   62.0848 H   0  0  0  0  0  0  0  0  0  0  0  0
   21.5539   41.9339   61.4063 H   0  0  0  0  0  0  0  0  0  0  0  0
   20.3325   42.0158   59.3520 H   0  0  0  0  0  0  0  0  0  0  0  0
   18.1960   43.9131   58.2359 H   0  0  0  0  0  0  0  0  0  0  0  0
   17.6315   44.0289   55.7676 H   0  0  0  0  0  0  0  0  0  0  0  0
   21.4133   44.2501   52.6616 H   0  0  0  0  0  0  0  0  0  0  0  0
   23.3058   44.3280   52.0206 H   0  0  0  0  0  0  0  0  0  0  0  0
   27.2754   44.3804   52.8467 H   0  0  0  0  0  0  0  0  0  0  0  0
   28.5367   46.0922   56.9937 H   0  0  0  0  0  0  0  0  0  0  0  0
   27.8919   45.6607   58.4306 H   0  0  0  0  0  0  0  0  0  0  0  0
   28.8597   44.6211   57.6249 H   0  0  0  0  0  0  0  0  0  0  0  0
   25.5168   43.6541   57.6587 H   0  0  0  0  0  0  0  0  0  0  0  0
   25.7925   45.0553   58.4506 H   0  0  0  0  0  0  0  0  0  0  0  0
   24.9924   45.0657   57.0271 H   0  0  0  0  0  0  0  0  0  0  0  0
   24.5573   44.1605   55.9626 H   0  0  0  0  0  0  0  0  0  0  0  0
   22.8478   44.0920   56.5346 H   0  0  0  0  0  0  0  0  0  0  0  0
  1  2  1  0  0  0  0
  2  3  1  0  0  0  0
  3  4  2  0  0  0  0
  4  5  1  0  0  0  0
  5  6  2  0  0  0  0
  6  7  1  0  0  0  0
  7  8  2  0  0  0  0
  8  9  1  0  0  0  0
  9 10  2  0  0  0  0
 10 11  1  0  0  0  0
 11 12  1  0  0  0  0
 12 13  2  0  0  0  0
 13 14  1  0  0  0  0
 14 15  2  0  0  0  0
 15 16  1  0  0  0  0
 16 17  2  0  0  0  0
 17 18  1  0  0  0  0
 18 19  2  0  0  0  0
 19 20  1  0  0  0  0
 20 21  1  0  0  0  0
 21 22  2  0  0  0  0
 21 23  1  0  0  0  0
 23 24  1  0  0  0  0
 23 25  1  0  0  0  0
 20 26  2  0  0  0  0
 15 27  1  0  0  0  0
 27 28  2  0  0  0  0
  8  3  1  0  0  0  0
 28  9  1  0  0  0  0
 28 12  1  0  0  0  0
 26 16  1  0  0  0  0
  1 29  1  0  0  0  0
  1 30  1  0  0  0  0
  1 31  1  0  0  0  0
  4 32  1  0  0  0  0
  5 33  1  0  0  0  0
  6 34  1  0  0  0  0
  7 35  1  0  0  0  0
 10 36  1  0  0  0  0
 11 37  1  0  0  0  0
 14 38  1  0  0  0  0
 17 39  1  0  0  0  0
 19 40  1  0  0  0  0
 24 41  1  0  0  0  0
 24 42  1  0  0  0  0
 24 43  1  0  0  0  0
 25 44  1  0  0  0  0
 25 45  1  0  0  0  0
 25 46  1  0  0  0  0
 26 47  1  0  0  0  0
 27 48  1  0  0  0  0
M  END
>  <docking-score>
-14.07

$$$$
2QOH_P3Y_3
foFlexX   03222115243D 1   1.00000     0.00000     0
FlexX 4.5.0 fol007
 48 51  0  0  0  0            999 V2000
   22.8882   47.4582   58.6466 C   0  0  0  0  0  0  0  0  0  0  0  0
   21.9227   46.4175   58.7555 O   0  0  0  0  0  0  0  0  0  0  0  0
   21.6691   45.7207   59.8840 C   0  0  0  0  0  0  0  0  0  0  0  0
   22.3921   46.0264   61.0322 C   0  0  0  0  0  0  0  0  0  0  0  0
   22.1543   45.3267   62.2110 C   0  0  0  0  0  0  0  0  0  0  0  0
   21.1937   44.3211   62.2414 C   0  0  0  0  0  0  0  0  0  0  0  0
   20.4699   44.0152   61.0933 C   0  0  0  0  0  0  0  0  0  0  0  0
   20.7079   44.7147   59.9145 C   0  0  0  0  0  0  0  0  0  0  0  0
   19.9535   44.3954   58.7169 C   0  0  0  0  0  0  0  0  0  0  0  0
   18.6055   44.1956   58.6704 C   0  0  0  0  0  0  0  0  0  0  0  0
   18.2893   43.9207   57.3729 N   0  0  0  0  0  0  0  0  0  0  0  0
   19.4286   43.9433   56.6042 C   0  0  0  0  0  0  0  0  0  0  0  0
   19.6830   43.7465   55.3002 N   0  0  0  0  0  0  0  0  0  0  0  0
   20.9225   43.8359   54.7917 C   0  0  0  0  0  0  0  0  0  0  0  0
   22.0196   44.1395   55.5935 C   0  0  0  0  0  0  0  0  0  0  0  0
   23.3729   44.2482   55.0843 C   0  0  0  0  0  0  0  0  0  0  0  0
   24.4732   43.9418   55.8782 C   0  0  0  0  0  0  0  0  0  0  0  0
   25.7181   44.0481   55.3898 N   0  0  0  0  0  0  0  0  0  0  0  0
   25.9431   44.4494   54.1298 C   0  0  0  0  0  0  0  0  0  0  0  0
   24.8794   44.7684   53.2926 C   0  0  0  0  0  0  0  0  0  0  0  0
   25.1053   45.2127   51.9008 C   0  0  0  0  0  0  0  0  0  0  0  0
   25.1526   44.3439   50.9867 O   0  0  0  0  0  0  0  0  0  0  0  0
   25.2811   46.6045   51.5676 N   0  0  0  0  0  0  0  0  0  0  0  0
   25.5114   46.9775   50.1696 C   0  0  0  0  0  0  0  0  0  0  0  0
   25.3911   47.6139   52.6264 C   0  0  0  0  0  0  0  0  0  0  0  0
   23.5787   44.6668   53.7742 C   0  0  0  0  0  0  0  0  0  0  0  0
   21.7932   44.3482   56.9477 C   0  0  0  0  0  0  0  0  0  0  0  0
   20.4902   44.2429   57.4173 C   0  0  0  0  0  0  0  0  0  0  0  0
   23.7946   47.0961   58.8641 H   0  0  0  0  0  0  0  0  0  0  0  0
   22.8877   47.8170   57.7132 H   0  0  0  0  0  0  0  0  0  0  0  0
   22.6603   48.1925   59.2861 H   0  0  0  0  0  0  0  0  0  0  0  0
   23.0829   46.7491   61.0105 H   0  0  0  0  0  0  0  0  0  0  0  0
   22.6741   45.5467   63.0365 H   0  0  0  0  0  0  0  0  0  0  0  0
   21.0234   43.8179   63.0887 H   0  0  0  0  0  0  0  0  0  0  0  0
   19.7787   43.2929   61.1154 H   0  0  0  0  0  0  0  0  0  0  0  0
   17.9700   44.2418   59.4410 H   0  0  0  0  0  0  0  0  0  0  0  0
   17.3683   43.7313   57.0323 H   0  0  0  0  0  0  0  0  0  0  0  0
   21.0610   43.6808   53.8136 H   0  0  0  0  0  0  0  0  0  0  0  0
   24.3350   43.6395   56.8213 H   0  0  0  0  0  0  0  0  0  0  0  0
   26.8812   44.5196   53.7905 H   0  0  0  0  0  0  0  0  0  0  0  0
   24.7340   46.6833   49.6137 H   0  0  0  0  0  0  0  0  0  0  0  0
   25.6130   47.9701   50.1019 H   0  0  0  0  0  0  0  0  0  0  0  0
   26.3444   46.5339   49.8391 H   0  0  0  0  0  0  0  0  0  0  0  0
   26.1805   47.4063   53.2041 H   0  0  0  0  0  0  0  0  0  0  0  0
   25.5078   48.5176   52.2145 H   0  0  0  0  0  0  0  0  0  0  0  0
   24.5598   47.6058   53.1823 H   0  0  0  0  0  0  0  0  0  0  0  0
   22.8017   44.8918   53.1862 H   0  0  0  0  0  0  0  0  0  0  0  0
   22.5468   44.5680   57.5671 H   0  0  0  0  0  0  0  0  0  0  0  0
  1  2  1  0  0  0  0
  2  3  1  0  0  0  0
  3  4  2  0  0  0  0
  4  5  1  0  0  0  0
  5  6  2  0  0  0  0
  6  7  1  0  0  0  0
  7  8  2  0  0  0  0
  8  9  1  0  0  0  0
  9 10  2  0  0  0  0
 10 11  1  0  0  0  0
 11 12  1  0  0  0  0
 12 13  2  0  0  0  0
 13 14  1  0  0  0  0
 14 15  2  0  0  0  0
 15 16  1  0  0  0  0
 16 17  2  0  0  0  0
 17 18  1  0  0  0  0
 18 19  2  0  0  0  0
 19 20  1  0  0  0  0
 20 21  1  0  0  0  0
 21 22  2  0  0  0  0
 21 23  1  0  0  0  0
 23 24  1  0  0  0  0
 23 25  1  0  0  0  0
 20 26  2  0  0  0  0
 15 27  1  0  0  0  0
 27 28  2  0  0  0  0
  8  3  1  0  0  0  0
 28  9  1  0  0  0  0
 28 12  1  0  0  0  0
 26 16  1  0  0  0  0
  1 29  1  0  0  0  0
  1 30  1  0  0  0  0
  1 31  1  0  0  0  0
  4 32  1  0  0  0  0
  5 33  1  0  0  0  0
  6 34  1  0  0  0  0
  7 35  1  0  0  0  0
 10 36  1  0  0  0  0
 11 37  1  0  0  0  0
 14 38  1  0  0  0  0
 17 39  1  0  0  0  0
 19 40  1  0  0  0  0
 24 41  1  0  0  0  0
 24 42  1  0  0  0  0
 24 43  1  0  0  0  0
 25 44  1  0  0  0  0
 25 45  1  0  0  0  0
 25 46  1  0  0  0  0
 26 47  1  0  0  0  0
 27 48  1  0  0  0  0
M  END
>  <docking-score>
-13.73

$$$$
3MS9_MS9_1
foFlexX   03222115243D 1   1.00000     0.00000     0
FlexX 4.5.0 fol007
 20 20  0  0  0  0            999 V2000
   21.0506   45.5981   58.0676 C   0  0  0  0  0  0  0  0  0  0  0  0
   20.4931   44.8186   57.0164 O   0  0  0  0  0  0  0  0  0  0  0  0
   20.8058   45.0335   55.6697 C   0  0  0  0  0  0  0  0  0  0  0  0
   21.6117   45.9487   55.3466 O   0  0  0  0  0  0  0  0  0  0  0  0
   20.1508   44.2374   54.6497 C   0  0  0  0  0  0  0  0  0  0  0  0
   20.8144   44.0207   53.4461 C   0  0  0  0  0  0  0  0  0  0  0  0
   20.2137   43.2612   52.4473 C   0  0  0  0  0  0  0  0  0  0  0  0
   18.9487   42.7240   52.6636 C   0  0  0  0  0  0  0  0  0  0  0  0
   18.1750   41.7515   51.3888 Cl  0  0  0  0  0  0  0  0  0  0  0  0
   18.2794   42.9369   53.8645 C   0  0  0  0  0  0  0  0  0  0  0  0
   18.8855   43.6971   54.8598 C   0  0  0  0  0  0  0  0  0  0  0  0
   18.1969   43.9006   56.0620 N   0  0  0  0  0  0  0  0  0  0  0  0
   20.8032   46.5583   57.9379 H   0  0  0  0  0  0  0  0  0  0  0  0
   20.6941   45.2777   58.9453 H   0  0  0  0  0  0  0  0  0  0  0  0
   22.0463   45.5063   58.0587 H   0  0  0  0  0  0  0  0  0  0  0  0
   21.7233   44.4109   53.2991 H   0  0  0  0  0  0  0  0  0  0  0  0
   20.6872   43.1027   51.5809 H   0  0  0  0  0  0  0  0  0  0  0  0
   17.3704   42.5469   54.0112 H   0  0  0  0  0  0  0  0  0  0  0  0
   17.9703   44.8287   56.3575 H   0  0  0  0  0  0  0  0  0  0  0  0
   17.9318   43.1179   56.6251 H   0  0  0  0  0  0  0  0  0  0  0  0
  1  2  1  0  0  0  0
  2  3  1  0  0  0  0
  3  4  2  0  0  0  0
  3  5  1  0  0  0  0
  5  6  2  0  0  0  0
  6  7  1  0  0  0  0
  7  8  2  0  0  0  0
  8  9  1  0  0  0  0
  8 10  1  0  0  0  0
 10 11  2  0  0  0  0
 11 12  1  0  0  0  0
 11  5  1  0  0  0  0
  1 13  1  0  0  0  0
  1 14  1  0  0  0  0
  1 15  1  0  0  0  0
  6 16  1  0  0  0  0
  7 17  1  0  0  0  0
 10 18  1  0  0  0  0
 12 19  1  0  0  0  0
 12 20  1  0  0  0  0
M  END
>  <docking-score>
-12.19

$$$$
3MS9_MS9_2
foFlexX   03222115243D 1   1.00000     0.00000     0
FlexX 4.5.0 fol007
 20 20  0  0  0  0            999 V2000
   22.9826   45.8695   56.5012 C   0  0  0  0  0  0  0  0  0  0  0  0
   22.1016   45.5102   55.4437 O   0  0  0  0  0  0  0  0  0  0  0  0
   20.8058   45.0335   55.6697 C   0  0  0  0  0  0  0  0  0  0  0  0
   20.2360   45.2519   56.7738 O   0  0  0  0  0  0  0  0  0  0  0  0
   20.1508   44.2374   54.6497 C   0  0  0  0  0  0  0  0  0  0  0  0
   20.8144   44.0207   53.4461 C   0  0  0  0  0  0  0  0  0  0  0  0
   20.2137   43.2612   52.4473 C   0  0  0  0  0  0  0  0  0  0  0  0
   18.9487   42.7240   52.6636 C   0  0  0  0  0  0  0  0  0  0  0  0
   18.1750   41.7515   51.3888 Cl  0  0  0  0  0  0  0  0  0  0  0  0
   18.2794   42.9369   53.8645 C   0  0  0  0  0  0  0  0  0  0  0  0
   18.8855   43.6971   54.8598 C   0  0  0  0  0  0  0  0  0  0  0  0
   18.1969   43.9006   56.0620 N   0  0  0  0  0  0  0  0  0  0  0  0
   23.1427   45.0745   57.0863 H   0  0  0  0  0  0  0  0  0  0  0  0
   23.8520   46.1826   56.1189 H   0  0  0  0  0  0  0  0  0  0  0  0
   22.5723   46.6040   57.0418 H   0  0  0  0  0  0  0  0  0  0  0  0
   21.7233   44.4109   53.2991 H   0  0  0  0  0  0  0  0  0  0  0  0
   20.6872   43.1027   51.5809 H   0  0  0  0  0  0  0  0  0  0  0  0
   17.3704   42.5469   54.0112 H   0  0  0  0  0  0  0  0  0  0  0  0
   17.9703   44.8287   56.3575 H   0  0  0  0  0  0  0  0  0  0  0  0
   17.9318   43.1179   56.6251 H   0  0  0  0  0  0  0  0  0  0  0  0
  1  2  1  0  0  0  0
  2  3  1  0  0  0  0
  3  4  2  0  0  0  0
  3  5  1  0  0  0  0
  5  6  2  0  0  0  0
  6  7  1  0  0  0  0
  7  8  2  0  0  0  0
  8  9  1  0  0  0  0
  8 10  1  0  0  0  0
 10 11  2  0  0  0  0
 11 12  1  0  0  0  0
 11  5  1  0  0  0  0
  1 13  1  0  0  0  0
  1 14  1  0  0  0  0
  1 15  1  0  0  0  0
  6 16  1  0  0  0  0
  7 17  1  0  0  0  0
 10 18  1  0  0  0  0
 12 19  1  0  0  0  0
 12 20  1  0  0  0  0
M  END
>  <docking-score>
-11.93

$$$$
3MS9_MS9_3
foFlexX   03222115243D 1   1.00000     0.00000     0
FlexX 4.5.0 fol007
 20 20  0  0  0  0            999 V2000
   22.5228   45.0924   57.4522 C   0  0  0  0  0  0  0  0  0  0  0  0
   21.5759   44.3977   56.6496 O   0  0  0  0  0  0  0  0  0  0  0  0
   20.8058   45.0335   55.6697 C   0  0  0  0  0  0  0  0  0  0  0  0
   20.6420   46.2838   55.7078 O   0  0  0  0  0  0  0  0  0  0  0  0
   20.1508   44.2374   54.6497 C   0  0  0  0  0  0  0  0  0  0  0  0
   20.8144   44.0207   53.4461 C   0  0  0  0  0  0  0  0  0  0  0  0
   20.2137   43.2612   52.4473 C   0  0  0  0  0  0  0  0  0  0  0  0
   18.9487   42.7240   52.6636 C   0  0  0  0  0  0  0  0  0  0  0  0
   18.1750   41.7515   51.3888 Cl  0  0  0  0  0  0  0  0  0  0  0  0
   18.2794   42.9369   53.8645 C   0  0  0  0  0  0  0  0  0  0  0  0
   18.8855   43.6971   54.8598 C   0  0  0  0  0  0  0  0  0  0  0  0
   18.1969   43.9006   56.0620 N   0  0  0  0  0  0  0  0  0  0  0  0
   22.0572   45.8082   57.9726 H   0  0  0  0  0  0  0  0  0  0  0  0
   22.9588   44.4512   58.0836 H   0  0  0  0  0  0  0  0  0  0  0  0
   23.2180   45.5062   56.8645 H   0  0  0  0  0  0  0  0  0  0  0  0
   21.7233   44.4109   53.2991 H   0  0  0  0  0  0  0  0  0  0  0  0
   20.6872   43.1027   51.5809 H   0  0  0  0  0  0  0  0  0  0  0  0
   17.3704   42.5469   54.0112 H   0  0  0  0  0  0  0  0  0  0  0  0
   17.9703   44.8287   56.3575 H   0  0  0  0  0  0  0  0  0  0  0  0
   17.9318   43.1179   56.6251 H   0  0  0  0  0  0  0  0  0  0  0  0
  1  2  1  0  0  0  0
  2  3  1  0  0  0  0
  3  4  2  0  0  0  0
  3  5  1  0  0  0  0
  5  6  2  0  0  0  0
  6  7  1  0  0  0  0
  7  8  2  0  0  0  0
  8  9  1  0  0  0  0
  8 10  1  0  0  0  0
 10 11  2  0  0  0  0
 11 12  1  0  0  0  0
 11  5  1  0  0  0  0
  1 13  1  0  0  0  0
  1 14  1  0  0  0  0
  1 15  1  0  0  0  0
  6 16  1  0  0  0  0
  7 17  1  0  0  0  0
 10 18  1  0  0  0  0
 12 19  1  0  0  0  0
 12 20  1  0  0  0  0
M  END
>  <docking-score>
-11.87

$$$$
3K5V_STJ_1
foFlexX   03222115243D 1   1.00000     0.00000     0
FlexX 4.5.0 fol007
 40 42  0  0  0  0            999 V2000
   24.8911   46.7179   51.2589 N   0  0  0  0  0  0  0  0  0  0  0  0
   25.4628   45.4623   51.6363 C   0  0  0  0  0  0  0  0  0  0  0  0
   25.8679   44.6822   50.7321 O   0  0  0  0  0  0  0  0  0  0  0  0
   25.5714   45.0558   53.0589 C   0  0  0  0  0  0  0  0  0  0  0  0
   26.7810   44.5768   53.5514 C   0  0  0  0  0  0  0  0  0  0  0  0
   26.8639   44.2003   54.8882 C   0  0  0  0  0  0  0  0  0  0  0  0
   25.7602   44.2969   55.7291 C   0  0  0  0  0  0  0  0  0  0  0  0
   24.5604   44.7792   55.2153 C   0  0  0  0  0  0  0  0  0  0  0  0
   23.4030   44.8846   56.0833 C   0  0  0  0  0  0  0  0  0  0  0  0
   22.1318   44.7433   55.5367 C   0  0  0  0  0  0  0  0  0  0  0  0
   21.0287   44.8464   56.3780 C   0  0  0  0  0  0  0  0  0  0  0  0
   19.7438   44.7064   55.8380 N   0  0  0  0  0  0  0  0  0  0  0  0
   19.4365   43.8940   54.6923 C   0  0  0  0  0  0  0  0  0  0  0  0
   18.1803   43.3058   54.5840 C   0  0  0  0  0  0  0  0  0  0  0  0
   17.8739   42.5180   53.4787 C   0  0  0  0  0  0  0  0  0  0  0  0
   18.8360   42.3290   52.4921 C   0  0  0  0  0  0  0  0  0  0  0  0
   18.5517   41.5666   51.4156 O   0  0  0  0  0  0  0  0  0  0  0  0
   18.7701   40.1607   51.3209 C   0  0  0  0  0  0  0  0  0  0  0  0
   18.0491   39.4991   52.2989 F   0  0  0  0  0  0  0  0  0  0  0  0
   18.3976   39.7034   50.0696 F   0  0  0  0  0  0  0  0  0  0  0  0
   20.1141   39.9024   51.5075 F   0  0  0  0  0  0  0  0  0  0  0  0
   20.0954   42.9129   52.5923 C   0  0  0  0  0  0  0  0  0  0  0  0
   20.3928   43.6991   53.7005 C   0  0  0  0  0  0  0  0  0  0  0  0
   21.2229   45.0775   57.6853 N   0  0  0  0  0  0  0  0  0  0  0  0
   22.4553   45.2114   58.1983 C   0  0  0  0  0  0  0  0  0  0  0  0
   23.5284   45.1146   57.3990 N   0  0  0  0  0  0  0  0  0  0  0  0
   24.4550   45.1612   53.8818 C   0  0  0  0  0  0  0  0  0  0  0  0
   24.1894   47.1404   51.8327 H   0  0  0  0  0  0  0  0  0  0  0  0
   25.1930   47.1732   50.4214 H   0  0  0  0  0  0  0  0  0  0  0  0
   27.5792   44.5041   52.9534 H   0  0  0  0  0  0  0  0  0  0  0  0
   27.7300   43.8551   55.2498 H   0  0  0  0  0  0  0  0  0  0  0  0
   25.8280   44.0238   56.6887 H   0  0  0  0  0  0  0  0  0  0  0  0
   22.0132   44.5710   54.5588 H   0  0  0  0  0  0  0  0  0  0  0  0
   18.9940   45.2021   56.2765 H   0  0  0  0  0  0  0  0  0  0  0  0
   17.4976   43.4492   55.3006 H   0  0  0  0  0  0  0  0  0  0  0  0
   16.9727   42.0928   53.3946 H   0  0  0  0  0  0  0  0  0  0  0  0
   20.7782   42.7689   51.8761 H   0  0  0  0  0  0  0  0  0  0  0  0
   21.2940   44.1243   53.7845 H   0  0  0  0  0  0  0  0  0  0  0  0
   22.5740   45.3833   59.1763 H   0  0  0  0  0  0  0  0  0  0  0  0
   23.5891   45.5066   53.5201 H   0  0  0  0  0  0  0  0  0  0  0  0
  1  2  1  0  0  0  0
  2  3  2  0  0  0  0
  2  4  1  0  0  0  0
  4  5  2  0  0  0  0
  5  6  1  0  0  0  0
  6  7  2  0  0  0  0
  7  8  1  0  0  0  0
  8  9  1  0  0  0  0
  9 10  2  0  0  0  0
 10 11  1  0  0  0  0
 11 12  1  0  0  0  0
 12 13  1  0  0  0  0
 13 14  2  0  0  0  0
 14 15  1  0  0  0  0
 15 16  2  0  0  0  0
 16 17  1  0  0  0  0
 17 18  1  0  0  0  0
 18 19  1  0  0  0  0
 18 20  1  0  0  0  0
 18 21  1  0  0  0  0
 16 22  1  0  0  0  0
 22 23  2  0  0  0  0
 11 24  2  0  0  0  0
 24 25  1  0  0  0  0
 25 26  2  0  0  0  0
  8 27  2  0  0  0  0
 27  4  1  0  0  0  0
 26  9  1  0  0  0  0
 23 13  1  0  0  0  0
  1 28  1  0  0  0  0
  1 29  1  0  0  0  0
  5 30  1  0  0  0  0
  6 31  1  0  0  0  0
  7 32  1  0  0  0  0
 10 33  1  0  0  0  0
 12 34  1  0  0  0  0
 14 35  1  0  0  0  0
 15 36  1  0  0  0  0
 22 37  1  0  0  0  0
 23 38  1  0  0  0  0
 25 39  1  0  0  0  0
 27 40  1  0  0  0  0
M  END
>  <docking-score>
-20.44

$$$$
3K5V_STJ_2
foFlexX   03222115243D 1   1.00000     0.00000     0
FlexX 4.5.0 fol007
 40 42  0  0  0  0            999 V2000
   27.7264   43.8372   52.9114 N   0  0  0  0  0  0  0  0  0  0  0  0
   26.3434   44.1998   52.9524 C   0  0  0  0  0  0  0  0  0  0  0  0
   25.7775   44.5609   51.8849 O   0  0  0  0  0  0  0  0  0  0  0  0
   25.5727   44.1763   54.2197 C   0  0  0  0  0  0  0  0  0  0  0  0
   26.2436   44.1930   55.4382 C   0  0  0  0  0  0  0  0  0  0  0  0
   25.5041   44.1705   56.6164 C   0  0  0  0  0  0  0  0  0  0  0  0
   24.1140   44.1316   56.5886 C   0  0  0  0  0  0  0  0  0  0  0  0
   23.4636   44.1159   55.3587 C   0  0  0  0  0  0  0  0  0  0  0  0
   22.0142   44.0759   55.3177 C   0  0  0  0  0  0  0  0  0  0  0  0
   21.3720   44.0599   54.0840 C   0  0  0  0  0  0  0  0  0  0  0  0
   19.9817   44.0216   54.0562 C   0  0  0  0  0  0  0  0  0  0  0  0
   19.3245   44.0060   52.8192 N   0  0  0  0  0  0  0  0  0  0  0  0
   18.9796   42.8059   52.1065 C   0  0  0  0  0  0  0  0  0  0  0  0
   17.6455   42.5390   51.8155 C   0  0  0  0  0  0  0  0  0  0  0  0
   17.3022   41.3801   51.1260 C   0  0  0  0  0  0  0  0  0  0  0  0
   18.3059   40.4997   50.7360 C   0  0  0  0  0  0  0  0  0  0  0  0
   17.9861   39.3720   50.0675 O   0  0  0  0  0  0  0  0  0  0  0  0
   17.1359   38.3371   50.5569 C   0  0  0  0  0  0  0  0  0  0  0  0
   15.8754   38.8414   50.8229 F   0  0  0  0  0  0  0  0  0  0  0  0
   17.0487   37.3135   49.6305 F   0  0  0  0  0  0  0  0  0  0  0  0
   17.6701   37.8342   51.7272 F   0  0  0  0  0  0  0  0  0  0  0  0
   19.6429   40.7581   51.0233 C   0  0  0  0  0  0  0  0  0  0  0  0
   19.9769   41.9192   51.7126 C   0  0  0  0  0  0  0  0  0  0  0  0
   19.3049   44.0009   55.2146 N   0  0  0  0  0  0  0  0  0  0  0  0
   19.9382   44.0165   56.3971 C   0  0  0  0  0  0  0  0  0  0  0  0
   21.2786   44.0536   56.4394 N   0  0  0  0  0  0  0  0  0  0  0  0
   24.1832   44.1378   54.1683 C   0  0  0  0  0  0  0  0  0  0  0  0
   28.3350   44.2619   52.2412 H   0  0  0  0  0  0  0  0  0  0  0  0
   28.0847   43.1590   53.5530 H   0  0  0  0  0  0  0  0  0  0  0  0
   27.2428   44.2208   55.4669 H   0  0  0  0  0  0  0  0  0  0  0  0
   25.9790   44.1825   57.4964 H   0  0  0  0  0  0  0  0  0  0  0  0
   23.5897   44.1152   57.4400 H   0  0  0  0  0  0  0  0  0  0  0  0
   21.8990   44.0755   53.2343 H   0  0  0  0  0  0  0  0  0  0  0  0
   19.0802   44.8835   52.4066 H   0  0  0  0  0  0  0  0  0  0  0  0
   16.9333   43.1799   52.1019 H   0  0  0  0  0  0  0  0  0  0  0  0
   16.3453   41.1826   50.9134 H   0  0  0  0  0  0  0  0  0  0  0  0
   20.3550   40.1168   50.7375 H   0  0  0  0  0  0  0  0  0  0  0  0
   20.9339   42.1166   51.9252 H   0  0  0  0  0  0  0  0  0  0  0  0
   19.4113   44.0004   57.2469 H   0  0  0  0  0  0  0  0  0  0  0  0
   23.7084   44.1261   53.2883 H   0  0  0  0  0  0  0  0  0  0  0  0
  1  2  1  0  0  0  0
  2  3  2  0  0  0  0
  2  4  1  0  0  0  0
  4  5  2  0  0  0  0
  5  6  1  0  0  0  0
  6  7  2  0  0  0  0
  7  8  1  0  0  0  0
  8  9  1  0  0  0  0
  9 10  2  0  0  0  0
 10 11  1  0  0  0  0
 11 12  1  0  0  0  0
 12 13  1  0  0  0  0
 13 14  2  0  0  0  0
 14 15  1  0  0  0  0
 15 16  2  0  0  0  0
 16 17  1  0  0  0  0
 17 18  1  0  0  0  0
 18 19  1  0  0  0  0
 18 20  1  0  0  0  0
 18 21  1  0  0  0  0
 16 22  1  0  0  0  0
 22 23  2  0  0  0  0
 11 24  2  0  0  0  0
 24 25  1  0  0  0  0
 25 26  2  0  0  0  0
  8 27  2  0  0  0  0
 27  4  1  0  0  0  0
 26  9  1  0  0  0  0
 23 13  1  0  0  0  0
  1 28  1  0  0  0  0
  1 29  1  0  0  0  0
  5 30  1  0  0  0  0
  6 31  1  0  0  0  0
  7 32  1  0  0  0  0
 10 33  1  0  0  0  0
 12 34  1  0  0  0  0
 14 35  1  0  0  0  0
 15 36  1  0  0  0  0
 22 37  1  0  0  0  0
 23 38  1  0  0  0  0
 25 39  1  0  0  0  0
 27 40  1  0  0  0  0
M  END
>  <docking-score>
-20.07

$$$$
3K5V_STJ_3
foFlexX   03222115243D 1   1.00000     0.00000     0
FlexX 4.5.0 fol007
 40 42  0  0  0  0            999 V2000
   24.8465   46.6863   51.2381 N   0  0  0  0  0  0  0  0  0  0  0  0
   25.4417   45.4489   51.6385 C   0  0  0  0  0  0  0  0  0  0  0  0
   25.8559   44.6572   50.7487 O   0  0  0  0  0  0  0  0  0  0  0  0
   25.5640   45.0741   53.0687 C   0  0  0  0  0  0  0  0  0  0  0  0
   26.7840   44.6264   53.5649 C   0  0  0  0  0  0  0  0  0  0  0  0
   26.8798   44.2795   54.9088 C   0  0  0  0  0  0  0  0  0  0  0  0
   25.7786   44.3746   55.7531 C   0  0  0  0  0  0  0  0  0  0  0  0
   24.5682   44.8253   55.2356 C   0  0  0  0  0  0  0  0  0  0  0  0
   23.4132   44.9289   56.1071 C   0  0  0  0  0  0  0  0  0  0  0  0
   22.1421   44.7543   55.5700 C   0  0  0  0  0  0  0  0  0  0  0  0
   21.0414   44.8559   56.4145 C   0  0  0  0  0  0  0  0  0  0  0  0
   19.7565   44.6827   55.8842 N   0  0  0  0  0  0  0  0  0  0  0  0
   19.4580   43.8413   54.7572 C   0  0  0  0  0  0  0  0  0  0  0  0
   20.4848   43.1418   54.1309 C   0  0  0  0  0  0  0  0  0  0  0  0
   20.2053   42.3250   53.0396 C   0  0  0  0  0  0  0  0  0  0  0  0
   18.8939   42.2205   52.5880 C   0  0  0  0  0  0  0  0  0  0  0  0
   18.6098   41.4323   51.5301 O   0  0  0  0  0  0  0  0  0  0  0  0
   17.7225   40.3162   51.5491 C   0  0  0  0  0  0  0  0  0  0  0  0
   16.4511   40.7239   51.9114 F   0  0  0  0  0  0  0  0  0  0  0  0
   17.6879   39.7133   50.3045 F   0  0  0  0  0  0  0  0  0  0  0  0
   18.1766   39.3984   52.4760 F   0  0  0  0  0  0  0  0  0  0  0  0
   17.8606   42.9169   53.2078 C   0  0  0  0  0  0  0  0  0  0  0  0
   18.1491   43.7308   54.2983 C   0  0  0  0  0  0  0  0  0  0  0  0
   21.2378   45.1176   57.7158 N   0  0  0  0  0  0  0  0  0  0  0  0
   22.4700   45.2834   58.2196 C   0  0  0  0  0  0  0  0  0  0  0  0
   23.5408   45.1885   57.4170 N   0  0  0  0  0  0  0  0  0  0  0  0
   24.4499   45.1775   53.8949 C   0  0  0  0  0  0  0  0  0  0  0  0
   24.1404   47.1086   51.8065 H   0  0  0  0  0  0  0  0  0  0  0  0
   25.1365   47.1292   50.3897 H   0  0  0  0  0  0  0  0  0  0  0  0
   27.5805   44.5550   52.9645 H   0  0  0  0  0  0  0  0  0  0  0  0
   27.7534   43.9569   55.2732 H   0  0  0  0  0  0  0  0  0  0  0  0
   25.8556   44.1228   56.7178 H   0  0  0  0  0  0  0  0  0  0  0  0
   22.0219   44.5596   54.5965 H   0  0  0  0  0  0  0  0  0  0  0  0
   19.0004   45.1744   56.3160 H   0  0  0  0  0  0  0  0  0  0  0  0
   21.4235   43.2259   54.4651 H   0  0  0  0  0  0  0  0  0  0  0  0
   20.9387   41.8191   52.5853 H   0  0  0  0  0  0  0  0  0  0  0  0
   16.9220   42.8333   52.8731 H   0  0  0  0  0  0  0  0  0  0  0  0
   17.4157   44.2366   54.7525 H   0  0  0  0  0  0  0  0  0  0  0  0
   22.5903   45.4777   59.1931 H   0  0  0  0  0  0  0  0  0  0  0  0
   23.5764   45.5003   53.5305 H   0  0  0  0  0  0  0  0  0  0  0  0
  1  2  1  0  0  0  0
  2  3  2  0  0  0  0
  2  4  1  0  0  0  0
  4  5  2  0  0  0  0
  5  6  1  0  0  0  0
  6  7  2  0  0  0  0
  7  8  1  0  0  0  0
  8  9  1  0  0  0  0
  9 10  2  0  0  0  0
 10 11  1  0  0  0  0
 11 12  1  0  0  0  0
 12 13  1  0  0  0  0
 13 14  2  0  0  0  0
 14 15  1  0  0  0  0
 15 16  2  0  0  0  0
 16 17  1  0  0  0  0
 17 18  1  0  0  0  0
 18 19  1  0  0  0  0
 18 20  1  0  0  0  0
 18 21  1  0  0  0  0
 16 22  1  0  0  0  0
 22 23  2  0  0  0  0
 11 24  2  0  0  0  0
 24 25  1  0  0  0  0
 25 26  2  0  0  0  0
  8 27  2  0  0  0  0
 27  4  1  0  0  0  0
 26  9  1  0  0  0  0
 23 13  1  0  0  0  0
  1 28  1  0  0  0  0
  1 29  1  0  0  0  0
  5 30  1  0  0  0  0
  6 31  1  0  0  0  0
  7 32  1  0  0  0  0
 10 33  1  0  0  0  0
 12 34  1  0  0  0  0
 14 35  1  0  0  0  0
 15 36  1  0  0  0  0
 22 37  1  0  0  0  0
 23 38  1  0  0  0  0
 25 39  1  0  0  0  0
 27 40  1  0  0  0  0
M  END
>  <docking-score>
-20.04

$$$$
3K5V_STI_1
foFlexX   03222115243D 1   1.00000     0.00000     0
FlexX 4.5.0 fol007
 70 74  0  0  0  0            999 V2000
   24.6845   48.7707   59.7744 C   0  0  0  0  0  0  0  0  0  0  0  0
   23.7299   47.9954   58.8810 C   0  0  0  0  0  0  0  0  0  0  0  0
   22.4169   48.4387   58.7610 C   0  0  0  0  0  0  0  0  0  0  0  0
   21.5213   47.7490   57.9500 C   0  0  0  0  0  0  0  0  0  0  0  0
   21.9531   46.6180   57.2650 C   0  0  0  0  0  0  0  0  0  0  0  0
   21.0357   45.8977   56.4243 N   0  0  0  0  0  0  0  0  0  0  0  0
   21.4326   45.1642   55.2499 C   0  0  0  0  0  0  0  0  0  0  0  0
   22.6476   45.1309   54.9103 O   0  0  0  0  0  0  0  0  0  0  0  0
   20.4392   44.4335   54.4262 C   0  0  0  0  0  0  0  0  0  0  0  0
   20.8677   43.7317   53.3039 C   0  0  0  0  0  0  0  0  0  0  0  0
   19.9475   43.0404   52.5222 C   0  0  0  0  0  0  0  0  0  0  0  0
   18.6026   43.0630   52.8797 C   0  0  0  0  0  0  0  0  0  0  0  0
   17.5858   42.3129   52.0344 C   0  0  0  0  0  0  0  0  0  0  0  0
   17.8808   40.8614   51.9747 N   0  3  0  0  0  0  0  0  0  0  0  0
   16.6137   40.1302   51.8175 C   0  0  0  0  0  0  0  0  0  0  0  0
   16.8323   38.8252   51.0661 C   0  0  0  0  0  0  0  0  0  0  0  0
   17.2350   39.0841   49.6758 N   0  3  0  0  0  0  0  0  0  0  0  0
   16.0704   39.2382   48.7907 C   0  0  0  0  0  0  0  0  0  0  0  0
   18.0552   40.3003   49.5726 C   0  0  0  0  0  0  0  0  0  0  0  0
   18.8048   40.5378   50.8751 C   0  0  0  0  0  0  0  0  0  0  0  0
   18.1698   43.7635   54.0008 C   0  0  0  0  0  0  0  0  0  0  0  0
   19.0941   44.4532   54.7793 C   0  0  0  0  0  0  0  0  0  0  0  0
   23.2646   46.1685   57.3798 C   0  0  0  0  0  0  0  0  0  0  0  0
   24.1547   46.8631   58.1928 C   0  0  0  0  0  0  0  0  0  0  0  0
   25.4779   46.4230   58.3184 N   0  0  0  0  0  0  0  0  0  0  0  0
   26.1858   45.7303   57.2810 C   0  0  0  0  0  0  0  0  0  0  0  0
   27.2030   44.9239   57.6180 N   0  0  0  0  0  0  0  0  0  0  0  0
   27.9004   44.2515   56.6905 C   0  0  0  0  0  0  0  0  0  0  0  0
   27.5657   44.3896   55.3474 C   0  0  0  0  0  0  0  0  0  0  0  0
   26.5096   45.2282   55.0076 C   0  0  0  0  0  0  0  0  0  0  0  0
   26.1538   45.3781   53.6079 C   0  0  0  0  0  0  0  0  0  0  0  0
   25.6040   46.5771   53.1668 C   0  0  0  0  0  0  0  0  0  0  0  0
   25.2655   46.7171   51.8254 C   0  0  0  0  0  0  0  0  0  0  0  0
   25.4892   45.6478   50.9647 C   0  0  0  0  0  0  0  0  0  0  0  0
   26.0208   44.5012   51.4139 N   0  0  0  0  0  0  0  0  0  0  0  0
   26.3560   44.3412   52.7030 C   0  0  0  0  0  0  0  0  0  0  0  0
   25.8540   45.8714   55.9874 N   0  0  0  0  0  0  0  0  0  0  0  0
   25.5842   48.3344   59.7588 H   0  0  0  0  0  0  0  0  0  0  0  0
   24.7639   49.7103   59.4414 H   0  0  0  0  0  0  0  0  0  0  0  0
   24.3335   48.7774   60.7107 H   0  0  0  0  0  0  0  0  0  0  0  0
   22.1168   49.2531   59.2577 H   0  0  0  0  0  0  0  0  0  0  0  0
   20.5763   48.0634   57.8604 H   0  0  0  0  0  0  0  0  0  0  0  0
   20.0661   45.9065   56.6691 H   0  0  0  0  0  0  0  0  0  0  0  0
   21.8372   43.7242   53.0590 H   0  0  0  0  0  0  0  0  0  0  0  0
   20.2484   42.5340   51.7142 H   0  0  0  0  0  0  0  0  0  0  0  0
   17.6001   42.6843   51.1060 H   0  0  0  0  0  0  0  0  0  0  0  0
   16.6771   42.4422   52.4312 H   0  0  0  0  0  0  0  0  0  0  0  0
   18.3033   40.5858   52.8381 H   0  0  0  0  0  0  0  0  0  0  0  0
   15.9685   40.6984   51.3069 H   0  0  0  0  0  0  0  0  0  0  0  0
   16.2372   39.9287   52.7218 H   0  0  0  0  0  0  0  0  0  0  0  0
   17.5502   38.3000   51.5230 H   0  0  0  0  0  0  0  0  0  0  0  0
   15.9818   38.2991   51.0684 H   0  0  0  0  0  0  0  0  0  0  0  0
   17.7773   38.3082   49.3534 H   0  0  0  0  0  0  0  0  0  0  0  0
   15.5125   40.0064   49.1046 H   0  0  0  0  0  0  0  0  0  0  0  0
   16.3823   39.4125   47.8567 H   0  0  0  0  0  0  0  0  0  0  0  0
   15.5247   38.4004   48.8091 H   0  0  0  0  0  0  0  0  0  0  0  0
   17.4628   41.0837   49.3844 H   0  0  0  0  0  0  0  0  0  0  0  0
   18.7131   40.1932   48.8272 H   0  0  0  0  0  0  0  0  0  0  0  0
   19.3158   39.7115   51.1119 H   0  0  0  0  0  0  0  0  0  0  0  0
   19.4412   41.2990   50.7502 H   0  0  0  0  0  0  0  0  0  0  0  0
   17.2003   43.7713   54.2457 H   0  0  0  0  0  0  0  0  0  0  0  0
   18.7932   44.9597   55.5873 H   0  0  0  0  0  0  0  0  0  0  0  0
   23.5646   45.3542   56.8830 H   0  0  0  0  0  0  0  0  0  0  0  0
   25.9556   46.6014   59.1785 H   0  0  0  0  0  0  0  0  0  0  0  0
   28.6557   43.6552   56.9625 H   0  0  0  0  0  0  0  0  0  0  0  0
   28.0736   43.8963   54.6412 H   0  0  0  0  0  0  0  0  0  0  0  0
   25.4537   47.3302   53.8073 H   0  0  0  0  0  0  0  0  0  0  0  0
   24.8689   47.5701   51.4862 H   0  0  0  0  0  0  0  0  0  0  0  0
   25.2505   45.7350   49.9975 H   0  0  0  0  0  0  0  0  0  0  0  0
   26.7513   43.4766   53.0133 H   0  0  0  0  0  0  0  0  0  0  0  0
  1  2  1  0  0  0  0
  2  3  2  0  0  0  0
  3  4  1  0  0  0  0
  4  5  2  0  0  0  0
  5  6  1  0  0  0  0
  6  7  1  0  0  0  0
  7  8  2  0  0  0  0
  7  9  1  0  0  0  0
  9 10  2  0  0  0  0
 10 11  1  0  0  0  0
 11 12  2  0  0  0  0
 12 13  1  0  0  0  0
 13 14  1  0  0  0  0
 14 15  1  0  0  0  0
 15 16  1  0  0  0  0
 16 17  1  0  0  0  0
 17 18  1  0  0  0  0
 17 19  1  0  0  0  0
 19 20  1  0  0  0  0
 12 21  1  0  0  0  0
 21 22  2  0  0  0  0
  5 23  1  0  0  0  0
 23 24  2  0  0  0  0
 24 25  1  0  0  0  0
 25 26  1  0  0  0  0
 26 27  2  0  0  0  0
 27 28  1  0  0  0  0
 28 29  2  0  0  0  0
 29 30  1  0  0  0  0
 30 31  1  0  0  0  0
 31 32  2  0  0  0  0
 32 33  1  0  0  0  0
 33 34  2  0  0  0  0
 34 35  1  0  0  0  0
 35 36  2  0  0  0  0
 30 37  2  0  0  0  0
 24  2  1  0  0  0  0
 37 26  1  0  0  0  0
 22  9  1  0  0  0  0
 36 31  1  0  0  0  0
 20 14  1  0  0  0  0
  1 38  1  0  0  0  0
  1 39  1  0  0  0  0
  1 40  1  0  0  0  0
  3 41  1  0  0  0  0
  4 42  1  0  0  0  0
  6 43  1  0  0  0  0
 10 44  1  0  0  0  0
 11 45  1  0  0  0  0
 13 46  1  0  0  0  0
 13 47  1  0  0  0  0
 14 48  1  0  0  0  0
 15 49  1  0  0  0  0
 15 50  1  0  0  0  0
 16 51  1  0  0  0  0
 16 52  1  0  0  0  0
 17 53  1  0  0  0  0
 18 54  1  0  0  0  0
 18 55  1  0  0  0  0
 18 56  1  0  0  0  0
 19 57  1  0  0  0  0
 19 58  1  0  0  0  0
 20 59  1  0  0  0  0
 20 60  1  0  0  0  0
 21 61  1  0  0  0  0
 22 62  1  0  0  0  0
 23 63  1  0  0  0  0
 25 64  1  0  0  0  0
 28 65  1  0  0  0  0
 29 66  1  0  0  0  0
 32 67  1  0  0  0  0
 33 68  1  0  0  0  0
 34 69  1  0  0  0  0
 36 70  1  0  0  0  0
M  CHG  2  14   1  17   1
M  END
>  <docking-score>
-17.25

$$$$
3K5V_STI_2
foFlexX   03222115243D 1   1.00000     0.00000     0
FlexX 4.5.0 fol007
 70 74  0  0  0  0            999 V2000
   23.9850   48.7769   60.3380 C   0  0  0  0  0  0  0  0  0  0  0  0
   23.1864   47.9451   59.3475 C   0  0  0  0  0  0  0  0  0  0  0  0
   21.8029   48.0861   59.3180 C   0  0  0  0  0  0  0  0  0  0  0  0
   21.0465   47.3379   58.4216 C   0  0  0  0  0  0  0  0  0  0  0  0
   21.6875   46.4531   57.5607 C   0  0  0  0  0  0  0  0  0  0  0  0
   20.9153   45.6749   56.6305 N   0  0  0  0  0  0  0  0  0  0  0  0
   21.4896   44.7347   55.7025 C   0  0  0  0  0  0  0  0  0  0  0  0
   22.7390   44.5592   55.6776 O   0  0  0  0  0  0  0  0  0  0  0  0
   20.6388   43.9545   54.7715 C   0  0  0  0  0  0  0  0  0  0  0  0
   21.2350   43.0517   53.8967 C   0  0  0  0  0  0  0  0  0  0  0  0
   20.4497   42.3118   53.0184 C   0  0  0  0  0  0  0  0  0  0  0  0
   19.0694   42.4890   53.0302 C   0  0  0  0  0  0  0  0  0  0  0  0
   18.1989   41.6879   52.0754 C   0  0  0  0  0  0  0  0  0  0  0  0
   19.0042   40.7817   51.2224 N   0  3  0  0  0  0  0  0  0  0  0  0
   19.1877   39.4570   51.8369 C   0  0  0  0  0  0  0  0  0  0  0  0
   18.0333   38.5264   51.4982 C   0  0  0  0  0  0  0  0  0  0  0  0
   18.0340   38.2332   50.0584 N   0  3  0  0  0  0  0  0  0  0  0  0
   16.6598   37.9659   49.6092 C   0  0  0  0  0  0  0  0  0  0  0  0
   18.6688   39.3193   49.2937 C   0  0  0  0  0  0  0  0  0  0  0  0
   18.3523   40.6749   49.9093 C   0  0  0  0  0  0  0  0  0  0  0  0
   18.4691   43.3907   53.9028 C   0  0  0  0  0  0  0  0  0  0  0  0
   19.2589   44.1282   54.7793 C   0  0  0  0  0  0  0  0  0  0  0  0
   23.0707   46.3066   57.5842 C   0  0  0  0  0  0  0  0  0  0  0  0
   23.8207   47.0579   58.4835 C   0  0  0  0  0  0  0  0  0  0  0  0
   25.2137   46.9216   58.5189 N   0  0  0  0  0  0  0  0  0  0  0  0
   26.0066   46.5748   57.3751 C   0  0  0  0  0  0  0  0  0  0  0  0
   27.1953   45.9839   57.5660 N   0  0  0  0  0  0  0  0  0  0  0  0
   27.9789   45.6377   56.5342 C   0  0  0  0  0  0  0  0  0  0  0  0
   27.5545   45.8946   55.2346 C   0  0  0  0  0  0  0  0  0  0  0  0
   26.3206   46.5078   55.0466 C   0  0  0  0  0  0  0  0  0  0  0  0
   25.8701   46.7798   53.6933 C   0  0  0  0  0  0  0  0  0  0  0  0
   25.9039   45.7637   52.7442 C   0  0  0  0  0  0  0  0  0  0  0  0
   25.4708   46.0279   51.4496 C   0  0  0  0  0  0  0  0  0  0  0  0
   25.0157   47.3063   51.1450 C   0  0  0  0  0  0  0  0  0  0  0  0
   24.9928   48.2699   52.0778 N   0  0  0  0  0  0  0  0  0  0  0  0
   25.4048   48.0404   53.3336 C   0  0  0  0  0  0  0  0  0  0  0  0
   25.5868   46.8278   56.1249 N   0  0  0  0  0  0  0  0  0  0  0  0
   24.9580   48.5676   60.2407 H   0  0  0  0  0  0  0  0  0  0  0  0
   23.8332   49.7484   60.1561 H   0  0  0  0  0  0  0  0  0  0  0  0
   23.6892   48.5619   61.2687 H   0  0  0  0  0  0  0  0  0  0  0  0
   21.3520   48.7252   59.9411 H   0  0  0  0  0  0  0  0  0  0  0  0
   20.0516   47.4354   58.3963 H   0  0  0  0  0  0  0  0  0  0  0  0
   19.9223   45.7932   56.6276 H   0  0  0  0  0  0  0  0  0  0  0  0
   22.2281   42.9346   53.8993 H   0  0  0  0  0  0  0  0  0  0  0  0
   20.8715   41.6611   52.3869 H   0  0  0  0  0  0  0  0  0  0  0  0
   17.6948   42.3214   51.4885 H   0  0  0  0  0  0  0  0  0  0  0  0
   17.5528   41.1413   52.6082 H   0  0  0  0  0  0  0  0  0  0  0  0
   19.9059   41.1939   51.0917 H   0  0  0  0  0  0  0  0  0  0  0  0
   19.2403   39.5629   52.8299 H   0  0  0  0  0  0  0  0  0  0  0  0
   20.0393   39.0562   51.4989 H   0  0  0  0  0  0  0  0  0  0  0  0
   18.1335   37.6735   52.0105 H   0  0  0  0  0  0  0  0  0  0  0  0
   17.1697   38.9651   51.7469 H   0  0  0  0  0  0  0  0  0  0  0  0
   18.5711   37.4020   49.9147 H   0  0  0  0  0  0  0  0  0  0  0  0
   16.0897   38.7685   49.7847 H   0  0  0  0  0  0  0  0  0  0  0  0
   16.6623   37.7666   48.6293 H   0  0  0  0  0  0  0  0  0  0  0  0
   16.2928   37.1808   50.1081 H   0  0  0  0  0  0  0  0  0  0  0  0
   18.3290   39.2995   48.3534 H   0  0  0  0  0  0  0  0  0  0  0  0
   19.6596   39.1834   49.2931 H   0  0  0  0  0  0  0  0  0  0  0  0
   18.6902   41.4003   49.3096 H   0  0  0  0  0  0  0  0  0  0  0  0
   17.3628   40.7678   50.0200 H   0  0  0  0  0  0  0  0  0  0  0  0
   17.4760   43.5080   53.9003 H   0  0  0  0  0  0  0  0  0  0  0  0
   18.8371   44.7789   55.4108 H   0  0  0  0  0  0  0  0  0  0  0  0
   23.5214   45.6676   56.9609 H   0  0  0  0  0  0  0  0  0  0  0  0
   25.6815   47.0744   59.3894 H   0  0  0  0  0  0  0  0  0  0  0  0
   28.8621   45.1981   56.6978 H   0  0  0  0  0  0  0  0  0  0  0  0
   28.1245   45.6436   54.4522 H   0  0  0  0  0  0  0  0  0  0  0  0
   26.2360   44.8531   52.9901 H   0  0  0  0  0  0  0  0  0  0  0  0
   25.4862   45.3125   50.7510 H   0  0  0  0  0  0  0  0  0  0  0  0
   24.7012   47.5100   50.2178 H   0  0  0  0  0  0  0  0  0  0  0  0
   25.3775   48.7754   54.0111 H   0  0  0  0  0  0  0  0  0  0  0  0
  1  2  1  0  0  0  0
  2  3  2  0  0  0  0
  3  4  1  0  0  0  0
  4  5  2  0  0  0  0
  5  6  1  0  0  0  0
  6  7  1  0  0  0  0
  7  8  2  0  0  0  0
  7  9  1  0  0  0  0
  9 10  2  0  0  0  0
 10 11  1  0  0  0  0
 11 12  2  0  0  0  0
 12 13  1  0  0  0  0
 13 14  1  0  0  0  0
 14 15  1  0  0  0  0
 15 16  1  0  0  0  0
 16 17  1  0  0  0  0
 17 18  1  0  0  0  0
 17 19  1  0  0  0  0
 19 20  1  0  0  0  0
 12 21  1  0  0  0  0
 21 22  2  0  0  0  0
  5 23  1  0  0  0  0
 23 24  2  0  0  0  0
 24 25  1  0  0  0  0
 25 26  1  0  0  0  0
 26 27  2  0  0  0  0
 27 28  1  0  0  0  0
 28 29  2  0  0  0  0
 29 30  1  0  0  0  0
 30 31  1  0  0  0  0
 31 32  2  0  0  0  0
 32 33  1  0  0  0  0
 33 34  2  0  0  0  0
 34 35  1  0  0  0  0
 35 36  2  0  0  0  0
 30 37  2  0  0  0  0
 24  2  1  0  0  0  0
 37 26  1  0  0  0  0
 22  9  1  0  0  0  0
 36 31  1  0  0  0  0
 20 14  1  0  0  0  0
  1 38  1  0  0  0  0
  1 39  1  0  0  0  0
  1 40  1  0  0  0  0
  3 41  1  0  0  0  0
  4 42  1  0  0  0  0
  6 43  1  0  0  0  0
 10 44  1  0  0  0  0
 11 45  1  0  0  0  0
 13 46  1  0  0  0  0
 13 47  1  0  0  0  0
 14 48  1  0  0  0  0
 15 49  1  0  0  0  0
 15 50  1  0  0  0  0
 16 51  1  0  0  0  0
 16 52  1  0  0  0  0
 17 53  1  0  0  0  0
 18 54  1  0  0  0  0
 18 55  1  0  0  0  0
 18 56  1  0  0  0  0
 19 57  1  0  0  0  0
 19 58  1  0  0  0  0
 20 59  1  0  0  0  0
 20 60  1  0  0  0  0
 21 61  1  0  0  0  0
 22 62  1  0  0  0  0
 23 63  1  0  0  0  0
 25 64  1  0  0  0  0
 28 65  1  0  0  0  0
 29 66  1  0  0  0  0
 32 67  1  0  0  0  0
 33 68  1  0  0  0  0
 34 69  1  0  0  0  0
 36 70  1  0  0  0  0
M  CHG  2  14   1  17   1
M  END
>  <docking-score>
-12.82

$$$$
3K5V_STI_3
foFlexX   03222115243D 1   1.00000     0.00000     0
FlexX 4.5.0 fol007
 70 74  0  0  0  0            999 V2000
   28.4937   45.5849   58.6437 C   0  0  0  0  0  0  0  0  0  0  0  0
   27.2989   45.0757   57.8540 C   0  0  0  0  0  0  0  0  0  0  0  0
   27.5234   44.2356   56.7683 C   0  0  0  0  0  0  0  0  0  0  0  0
   26.4488   43.7540   56.0276 C   0  0  0  0  0  0  0  0  0  0  0  0
   25.1554   44.1209   56.3846 C   0  0  0  0  0  0  0  0  0  0  0  0
   24.0376   43.6290   55.6257 N   0  0  0  0  0  0  0  0  0  0  0  0
   22.8013   44.3499   55.4621 C   0  0  0  0  0  0  0  0  0  0  0  0
   22.6570   45.4813   56.0024 O   0  0  0  0  0  0  0  0  0  0  0  0
   21.6856   43.7927   54.6597 C   0  0  0  0  0  0  0  0  0  0  0  0
   21.9468   42.7879   53.7335 C   0  0  0  0  0  0  0  0  0  0  0  0
   20.9100   42.2546   52.9744 C   0  0  0  0  0  0  0  0  0  0  0  0
   19.6183   42.7397   53.1562 C   0  0  0  0  0  0  0  0  0  0  0  0
   18.4757   42.1669   52.3330 C   0  0  0  0  0  0  0  0  0  0  0  0
   18.7126   40.7490   51.9713 N   0  3  0  0  0  0  0  0  0  0  0  0
   19.4289   40.6556   50.6861 C   0  0  0  0  0  0  0  0  0  0  0  0
   18.6591   39.8590   49.6399 C   0  0  0  0  0  0  0  0  0  0  0  0
   18.3129   38.5408   50.1925 N   0  3  0  0  0  0  0  0  0  0  0  0
   17.4784   37.8159   49.2243 C   0  0  0  0  0  0  0  0  0  0  0  0
   17.6423   38.6136   51.5015 C   0  0  0  0  0  0  0  0  0  0  0  0
   17.4205   40.0468   51.9619 C   0  0  0  0  0  0  0  0  0  0  0  0
   19.3526   43.7444   54.0808 C   0  0  0  0  0  0  0  0  0  0  0  0
   20.3929   44.2744   54.8376 C   0  0  0  0  0  0  0  0  0  0  0  0
   24.9228   44.9605   57.4691 C   0  0  0  0  0  0  0  0  0  0  0  0
   26.0023   45.4385   58.2051 C   0  0  0  0  0  0  0  0  0  0  0  0
   25.7841   46.2843   59.2994 N   0  0  0  0  0  0  0  0  0  0  0  0
   24.4825   46.7069   59.7288 C   0  0  0  0  0  0  0  0  0  0  0  0
   24.3667   47.8559   60.4107 N   0  0  0  0  0  0  0  0  0  0  0  0
   23.1753   48.3000   60.8372 C   0  0  0  0  0  0  0  0  0  0  0  0
   22.0306   47.5566   60.5692 C   0  0  0  0  0  0  0  0  0  0  0  0
   22.1605   46.3664   59.8617 C   0  0  0  0  0  0  0  0  0  0  0  0
   20.9706   45.5841   59.5780 C   0  0  0  0  0  0  0  0  0  0  0  0
   20.0870   45.2848   60.6096 C   0  0  0  0  0  0  0  0  0  0  0  0
   18.9482   44.5363   60.3336 C   0  0  0  0  0  0  0  0  0  0  0  0
   18.7292   44.1094   59.0281 C   0  0  0  0  0  0  0  0  0  0  0  0
   19.5963   44.4108   58.0501 N   0  0  0  0  0  0  0  0  0  0  0  0
   20.7019   45.1316   58.2904 C   0  0  0  0  0  0  0  0  0  0  0  0
   23.3842   45.9808   59.4646 N   0  0  0  0  0  0  0  0  0  0  0  0
   28.1756   46.1724   59.3878 H   0  0  0  0  0  0  0  0  0  0  0  0
   28.9973   44.8090   59.0237 H   0  0  0  0  0  0  0  0  0  0  0  0
   29.0943   46.1082   58.0392 H   0  0  0  0  0  0  0  0  0  0  0  0
   28.4572   43.9779   56.5203 H   0  0  0  0  0  0  0  0  0  0  0  0
   26.6046   43.1499   55.2461 H   0  0  0  0  0  0  0  0  0  0  0  0
   24.1234   42.7349   55.1862 H   0  0  0  0  0  0  0  0  0  0  0  0
   22.8799   42.4489   53.6135 H   0  0  0  0  0  0  0  0  0  0  0  0
   21.0906   41.5322   52.3069 H   0  0  0  0  0  0  0  0  0  0  0  0
   18.3809   42.7031   51.4943 H   0  0  0  0  0  0  0  0  0  0  0  0
   17.6313   42.2282   52.8652 H   0  0  0  0  0  0  0  0  0  0  0  0
   19.2865   40.3377   52.6794 H   0  0  0  0  0  0  0  0  0  0  0  0
   20.3102   40.2099   50.8429 H   0  0  0  0  0  0  0  0  0  0  0  0
   19.5804   41.5801   50.3365 H   0  0  0  0  0  0  0  0  0  0  0  0
   17.8225   40.3492   49.3954 H   0  0  0  0  0  0  0  0  0  0  0  0
   19.2267   39.7413   48.8251 H   0  0  0  0  0  0  0  0  0  0  0  0
   19.1618   38.0258   50.3114 H   0  0  0  0  0  0  0  0  0  0  0  0
   17.9843   37.6994   48.3696 H   0  0  0  0  0  0  0  0  0  0  0  0
   17.2402   36.9184   49.5956 H   0  0  0  0  0  0  0  0  0  0  0  0
   16.6429   38.3365   49.0488 H   0  0  0  0  0  0  0  0  0  0  0  0
   18.2080   38.1429   52.1785 H   0  0  0  0  0  0  0  0  0  0  0  0
   16.7550   38.1575   51.4334 H   0  0  0  0  0  0  0  0  0  0  0  0
   16.7925   40.5075   51.3348 H   0  0  0  0  0  0  0  0  0  0  0  0
   17.0316   40.0471   52.8832 H   0  0  0  0  0  0  0  0  0  0  0  0
   18.4196   44.0836   54.2008 H   0  0  0  0  0  0  0  0  0  0  0  0
   20.2125   44.9968   55.5050 H   0  0  0  0  0  0  0  0  0  0  0  0
   23.9889   45.2181   57.7171 H   0  0  0  0  0  0  0  0  0  0  0  0
   26.5794   46.6117   59.8095 H   0  0  0  0  0  0  0  0  0  0  0  0
   23.1103   49.1595   61.3443 H   0  0  0  0  0  0  0  0  0  0  0  0
   21.1332   47.8713   60.8786 H   0  0  0  0  0  0  0  0  0  0  0  0
   20.2688   45.6044   61.5395 H   0  0  0  0  0  0  0  0  0  0  0  0
   18.2992   44.3092   61.0597 H   0  0  0  0  0  0  0  0  0  0  0  0
   17.9141   43.5704   58.8157 H   0  0  0  0  0  0  0  0  0  0  0  0
   21.3328   45.3435   57.5440 H   0  0  0  0  0  0  0  0  0  0  0  0
  1  2  1  0  0  0  0
  2  3  2  0  0  0  0
  3  4  1  0  0  0  0
  4  5  2  0  0  0  0
  5  6  1  0  0  0  0
  6  7  1  0  0  0  0
  7  8  2  0  0  0  0
  7  9  1  0  0  0  0
  9 10  2  0  0  0  0
 10 11  1  0  0  0  0
 11 12  2  0  0  0  0
 12 13  1  0  0  0  0
 13 14  1  0  0  0  0
 14 15  1  0  0  0  0
 15 16  1  0  0  0  0
 16 17  1  0  0  0  0
 17 18  1  0  0  0  0
 17 19  1  0  0  0  0
 19 20  1  0  0  0  0
 12 21  1  0  0  0  0
 21 22  2  0  0  0  0
  5 23  1  0  0  0  0
 23 24  2  0  0  0  0
 24 25  1  0  0  0  0
 25 26  1  0  0  0  0
 26 27  2  0  0  0  0
 27 28  1  0  0  0  0
 28 29  2  0  0  0  0
 29 30  1  0  0  0  0
 30 31  1  0  0  0  0
 31 32  2  0  0  0  0
 32 33  1  0  0  0  0
 33 34  2  0  0  0  0
 34 35  1  0  0  0  0
 35 36  2  0  0  0  0
 30 37  2  0  0  0  0
 24  2  1  0  0  0  0
 37 26  1  0  0  0  0
 22  9  1  0  0  0  0
 36 31  1  0  0  0  0
 20 14  1  0  0  0  0
  1 38  1  0  0  0  0
  1 39  1  0  0  0  0
  1 40  1  0  0  0  0
  3 41  1  0  0  0  0
  4 42  1  0  0  0  0
  6 43  1  0  0  0  0
 10 44  1  0  0  0  0
 11 45  1  0  0  0  0
 13 46  1  0  0  0  0
 13 47  1  0  0  0  0
 14 48  1  0  0  0  0
 15 49  1  0  0  0  0
 15 50  1  0  0  0  0
 16 51  1  0  0  0  0
 16 52  1  0  0  0  0
 17 53  1  0  0  0  0
 18 54  1  0  0  0  0
 18 55  1  0  0  0  0
 18 56  1  0  0  0  0
 19 57  1  0  0  0  0
 19 58  1  0  0  0  0
 20 59  1  0  0  0  0
 20 60  1  0  0  0  0
 21 61  1  0  0  0  0
 22 62  1  0  0  0  0
 23 63  1  0  0  0  0
 25 64  1  0  0  0  0
 28 65  1  0  0  0  0
 29 66  1  0  0  0  0
 32 67  1  0  0  0  0
 33 68  1  0  0  0  0
 34 69  1  0  0  0  0
 36 70  1  0  0  0  0
M  CHG  2  14   1  17   1
M  END
>  <docking-score>
-12.50

$$$$
