1FPU_PRC_1
foFlexX   03192112273D 1   1.00000     0.00000     0
FlexX 4.5.0 fol007
 47 50  0  0  0  0            999 V2000
   21.0439   11.7913   55.7669 C   0  0  0  0  0  0  0  0  0  0  0  0
   19.9474   12.8195   55.5407 C   0  0  0  0  0  0  0  0  0  0  0  0
   18.6466   12.3747   55.3289 C   0  0  0  0  0  0  0  0  0  0  0  0
   17.6228   13.2932   55.1196 C   0  0  0  0  0  0  0  0  0  0  0  0
   17.9151   14.6531   55.1249 C   0  0  0  0  0  0  0  0  0  0  0  0
   16.8922   15.5857   54.9151 N   0  0  0  0  0  0  0  0  0  0  0  0
   15.7319   15.3208   54.1141 C   0  0  0  0  0  0  0  0  0  0  0  0
   14.9642   14.3728   54.4351 O   0  0  0  0  0  0  0  0  0  0  0  0
   15.4265   16.1482   52.9220 C   0  0  0  0  0  0  0  0  0  0  0  0
   14.1525   16.6853   52.7706 C   0  0  0  0  0  0  0  0  0  0  0  0
   13.8703   17.4613   51.6519 C   0  0  0  0  0  0  0  0  0  0  0  0
   14.8768   17.6759   50.7163 C   0  0  0  0  0  0  0  0  0  0  0  0
   16.0980   17.1470   50.8845 N   0  0  0  0  0  0  0  0  0  0  0  0
   16.3954   16.3952   51.9550 C   0  0  0  0  0  0  0  0  0  0  0  0
   19.2134   15.1057   55.3360 C   0  0  0  0  0  0  0  0  0  0  0  0
   20.2322   14.1815   55.5445 C   0  0  0  0  0  0  0  0  0  0  0  0
   21.5834   14.6349   55.7650 N   0  0  0  0  0  0  0  0  0  0  0  0
   21.9588   15.4656   56.8286 C   0  0  0  0  0  0  0  0  0  0  0  0
   21.2128   15.4681   57.9431 N   0  0  0  0  0  0  0  0  0  0  0  0
   21.5243   16.2430   58.9924 C   0  0  0  0  0  0  0  0  0  0  0  0
   22.6451   17.0644   58.9293 C   0  0  0  0  0  0  0  0  0  0  0  0
   23.4124   17.0552   57.7695 C   0  0  0  0  0  0  0  0  0  0  0  0
   24.5839   17.9098   57.6953 C   0  0  0  0  0  0  0  0  0  0  0  0
   24.9128   18.7149   58.7807 C   0  0  0  0  0  0  0  0  0  0  0  0
   26.0360   19.5312   58.7061 C   0  0  0  0  0  0  0  0  0  0  0  0
   26.7973   19.5156   57.5422 C   0  0  0  0  0  0  0  0  0  0  0  0
   26.4596   18.7304   56.5085 N   0  0  0  0  0  0  0  0  0  0  0  0
   25.3812   17.9338   56.5557 C   0  0  0  0  0  0  0  0  0  0  0  0
   23.0429   16.2547   56.7564 N   0  0  0  0  0  0  0  0  0  0  0  0
   21.9168   12.2596   55.9036 H   0  0  0  0  0  0  0  0  0  0  0  0
   20.8277   11.2461   56.5768 H   0  0  0  0  0  0  0  0  0  0  0  0
   21.1085   11.1919   54.9690 H   0  0  0  0  0  0  0  0  0  0  0  0
   18.4473   11.3948   55.3272 H   0  0  0  0  0  0  0  0  0  0  0  0
   16.6860   12.9787   54.9668 H   0  0  0  0  0  0  0  0  0  0  0  0
   16.9747   16.4841   55.3464 H   0  0  0  0  0  0  0  0  0  0  0  0
   13.4471   16.5152   53.4587 H   0  0  0  0  0  0  0  0  0  0  0  0
   12.9613   17.8575   51.5225 H   0  0  0  0  0  0  0  0  0  0  0  0
   14.6875   18.2322   49.9072 H   0  0  0  0  0  0  0  0  0  0  0  0
   17.3135   16.0124   52.0578 H   0  0  0  0  0  0  0  0  0  0  0  0
   19.4126   16.0857   55.3379 H   0  0  0  0  0  0  0  0  0  0  0  0
   22.2913   14.3401   55.1232 H   0  0  0  0  0  0  0  0  0  0  0  0
   20.9548   16.2304   59.8143 H   0  0  0  0  0  0  0  0  0  0  0  0
   22.8938   17.6491   59.7015 H   0  0  0  0  0  0  0  0  0  0  0  0
   24.3478   18.7067   59.6057 H   0  0  0  0  0  0  0  0  0  0  0  0
   26.2913   20.1182   59.4743 H   0  0  0  0  0  0  0  0  0  0  0  0
   27.6076   20.0977   57.4752 H   0  0  0  0  0  0  0  0  0  0  0  0
   25.1507   17.3572   55.7719 H   0  0  0  0  0  0  0  0  0  0  0  0
  1  2  1  0  0  0  0
  2  3  2  0  0  0  0
  3  4  1  0  0  0  0
  4  5  2  0  0  0  0
  5  6  1  0  0  0  0
  6  7  1  0  0  0  0
  7  8  2  0  0  0  0
  7  9  1  0  0  0  0
  9 10  2  0  0  0  0
 10 11  1  0  0  0  0
 11 12  2  0  0  0  0
 12 13  1  0  0  0  0
 13 14  2  0  0  0  0
  5 15  1  0  0  0  0
 15 16  2  0  0  0  0
 16 17  1  0  0  0  0
 17 18  1  0  0  0  0
 18 19  2  0  0  0  0
 19 20  1  0  0  0  0
 20 21  2  0  0  0  0
 21 22  1  0  0  0  0
 22 23  1  0  0  0  0
 23 24  2  0  0  0  0
 24 25  1  0  0  0  0
 25 26  2  0  0  0  0
 26 27  1  0  0  0  0
 27 28  2  0  0  0  0
 22 29  2  0  0  0  0
 16  2  1  0  0  0  0
 29 18  1  0  0  0  0
 14  9  1  0  0  0  0
 28 23  1  0  0  0  0
  1 30  1  0  0  0  0
  1 31  1  0  0  0  0
  1 32  1  0  0  0  0
  3 33  1  0  0  0  0
  4 34  1  0  0  0  0
  6 35  1  0  0  0  0
 10 36  1  0  0  0  0
 11 37  1  0  0  0  0
 12 38  1  0  0  0  0
 14 39  1  0  0  0  0
 15 40  1  0  0  0  0
 17 41  1  0  0  0  0
 20 42  1  0  0  0  0
 21 43  1  0  0  0  0
 24 44  1  0  0  0  0
 25 45  1  0  0  0  0
 26 46  1  0  0  0  0
 28 47  1  0  0  0  0
M  END
>  <docking-score>
-31.69

$$$$
1FPU_PRC_2
foFlexX   03192112273D 1   1.00000     0.00000     0
FlexX 4.5.0 fol007
 47 50  0  0  0  0            999 V2000
   21.2099   13.0672   55.9374 C   0  0  0  0  0  0  0  0  0  0  0  0
   19.8517   13.6982   55.6768 C   0  0  0  0  0  0  0  0  0  0  0  0
   18.7333   12.8741   55.6085 C   0  0  0  0  0  0  0  0  0  0  0  0
   17.4775   13.4241   55.3716 C   0  0  0  0  0  0  0  0  0  0  0  0
   17.3558   14.7998   55.2053 C   0  0  0  0  0  0  0  0  0  0  0  0
   16.0967   15.3633   54.9663 N   0  0  0  0  0  0  0  0  0  0  0  0
   15.2810   15.0271   53.8351 C   0  0  0  0  0  0  0  0  0  0  0  0
   14.9084   13.8324   53.6767 O   0  0  0  0  0  0  0  0  0  0  0  0
   14.8713   16.0650   52.8584 C   0  0  0  0  0  0  0  0  0  0  0  0
   15.7855   17.0395   52.4723 C   0  0  0  0  0  0  0  0  0  0  0  0
   15.3978   18.0104   51.5556 C   0  0  0  0  0  0  0  0  0  0  0  0
   14.1017   17.9747   51.0524 C   0  0  0  0  0  0  0  0  0  0  0  0
   13.2380   17.0246   51.4402 N   0  0  0  0  0  0  0  0  0  0  0  0
   13.5876   16.0768   52.3229 C   0  0  0  0  0  0  0  0  0  0  0  0
   18.4696   15.6305   55.2724 C   0  0  0  0  0  0  0  0  0  0  0  0
   19.7223   15.0734   55.5094 C   0  0  0  0  0  0  0  0  0  0  0  0
   20.8867   15.9214   55.5819 N   0  0  0  0  0  0  0  0  0  0  0  0
   21.7067   16.0175   56.7134 C   0  0  0  0  0  0  0  0  0  0  0  0
   21.4044   15.2867   57.7965 N   0  0  0  0  0  0  0  0  0  0  0  0
   22.1534   15.3388   58.9077 C   0  0  0  0  0  0  0  0  0  0  0  0
   23.2702   16.1673   58.9435 C   0  0  0  0  0  0  0  0  0  0  0  0
   23.5756   16.9215   57.8157 C   0  0  0  0  0  0  0  0  0  0  0  0
   24.7395   17.7892   57.8448 C   0  0  0  0  0  0  0  0  0  0  0  0
   25.1469   18.3465   59.0523 C   0  0  0  0  0  0  0  0  0  0  0  0
   26.2625   19.1761   59.0761 C   0  0  0  0  0  0  0  0  0  0  0  0
   26.9375   19.4226   57.8853 C   0  0  0  0  0  0  0  0  0  0  0  0
   26.5251   18.8736   56.7331 N   0  0  0  0  0  0  0  0  0  0  0  0
   25.4523   18.0697   56.6837 C   0  0  0  0  0  0  0  0  0  0  0  0
   22.7823   16.8211   56.7367 N   0  0  0  0  0  0  0  0  0  0  0  0
   21.9102   13.7806   55.9591 H   0  0  0  0  0  0  0  0  0  0  0  0
   21.1927   12.5901   56.8161 H   0  0  0  0  0  0  0  0  0  0  0  0
   21.4202   12.4158   55.2084 H   0  0  0  0  0  0  0  0  0  0  0  0
   18.8318   11.8864   55.7296 H   0  0  0  0  0  0  0  0  0  0  0  0
   16.6702   12.8361   55.3213 H   0  0  0  0  0  0  0  0  0  0  0  0
   15.7474   16.0358   55.6187 H   0  0  0  0  0  0  0  0  0  0  0  0
   16.7115   17.0419   52.8499 H   0  0  0  0  0  0  0  0  0  0  0  0
   16.0385   18.7206   51.2638 H   0  0  0  0  0  0  0  0  0  0  0  0
   13.8098   18.6669   50.3923 H   0  0  0  0  0  0  0  0  0  0  0  0
   12.9254   15.3790   52.5959 H   0  0  0  0  0  0  0  0  0  0  0  0
   18.3709   16.6182   55.1514 H   0  0  0  0  0  0  0  0  0  0  0  0
   21.1215   16.4710   54.7801 H   0  0  0  0  0  0  0  0  0  0  0  0
   21.9109   14.7859   59.7049 H   0  0  0  0  0  0  0  0  0  0  0  0
   23.8413   16.2196   59.7628 H   0  0  0  0  0  0  0  0  0  0  0  0
   24.6431   18.1526   59.8940 H   0  0  0  0  0  0  0  0  0  0  0  0
   26.5734   19.5876   59.9328 H   0  0  0  0  0  0  0  0  0  0  0  0
   27.7415   20.0173   57.8882 H   0  0  0  0  0  0  0  0  0  0  0  0
   25.1650   17.6721   55.8122 H   0  0  0  0  0  0  0  0  0  0  0  0
  1  2  1  0  0  0  0
  2  3  2  0  0  0  0
  3  4  1  0  0  0  0
  4  5  2  0  0  0  0
  5  6  1  0  0  0  0
  6  7  1  0  0  0  0
  7  8  2  0  0  0  0
  7  9  1  0  0  0  0
  9 10  2  0  0  0  0
 10 11  1  0  0  0  0
 11 12  2  0  0  0  0
 12 13  1  0  0  0  0
 13 14  2  0  0  0  0
  5 15  1  0  0  0  0
 15 16  2  0  0  0  0
 16 17  1  0  0  0  0
 17 18  1  0  0  0  0
 18 19  2  0  0  0  0
 19 20  1  0  0  0  0
 20 21  2  0  0  0  0
 21 22  1  0  0  0  0
 22 23  1  0  0  0  0
 23 24  2  0  0  0  0
 24 25  1  0  0  0  0
 25 26  2  0  0  0  0
 26 27  1  0  0  0  0
 27 28  2  0  0  0  0
 22 29  2  0  0  0  0
 16  2  1  0  0  0  0
 29 18  1  0  0  0  0
 14  9  1  0  0  0  0
 28 23  1  0  0  0  0
  1 30  1  0  0  0  0
  1 31  1  0  0  0  0
  1 32  1  0  0  0  0
  3 33  1  0  0  0  0
  4 34  1  0  0  0  0
  6 35  1  0  0  0  0
 10 36  1  0  0  0  0
 11 37  1  0  0  0  0
 12 38  1  0  0  0  0
 14 39  1  0  0  0  0
 15 40  1  0  0  0  0
 17 41  1  0  0  0  0
 20 42  1  0  0  0  0
 21 43  1  0  0  0  0
 24 44  1  0  0  0  0
 25 45  1  0  0  0  0
 26 46  1  0  0  0  0
 28 47  1  0  0  0  0
M  END
>  <docking-score>
-31.30

$$$$
1FPU_PRC_3
foFlexX   03192112273D 1   1.00000     0.00000     0
FlexX 4.5.0 fol007
 47 50  0  0  0  0            999 V2000
   21.0213   11.8094   55.7427 C   0  0  0  0  0  0  0  0  0  0  0  0
   19.9248   12.8451   55.5543 C   0  0  0  0  0  0  0  0  0  0  0  0
   18.6188   12.4085   55.3579 C   0  0  0  0  0  0  0  0  0  0  0  0
   17.5949   13.3341   55.1830 C   0  0  0  0  0  0  0  0  0  0  0  0
   17.8922   14.6927   55.2072 C   0  0  0  0  0  0  0  0  0  0  0  0
   16.8692   15.6323   55.0321 N   0  0  0  0  0  0  0  0  0  0  0  0
   15.6940   15.3856   54.2473 C   0  0  0  0  0  0  0  0  0  0  0  0
   14.9286   14.4346   54.5651 O   0  0  0  0  0  0  0  0  0  0  0  0
   15.3706   16.2350   53.0756 C   0  0  0  0  0  0  0  0  0  0  0  0
   16.3925   16.6471   52.2269 C   0  0  0  0  0  0  0  0  0  0  0  0
   16.0850   17.4427   51.1288 C   0  0  0  0  0  0  0  0  0  0  0  0
   14.7586   17.8021   50.9144 C   0  0  0  0  0  0  0  0  0  0  0  0
   13.7905   17.3923   51.7474 N   0  0  0  0  0  0  0  0  0  0  0  0
   14.0611   16.6240   52.8134 C   0  0  0  0  0  0  0  0  0  0  0  0
   19.1958   15.1371   55.4032 C   0  0  0  0  0  0  0  0  0  0  0  0
   20.2147   14.2058   55.5771 C   0  0  0  0  0  0  0  0  0  0  0  0
   21.5713   14.6507   55.7815 N   0  0  0  0  0  0  0  0  0  0  0  0
   21.9685   15.4611   56.8528 C   0  0  0  0  0  0  0  0  0  0  0  0
   21.2423   15.4463   57.9803 N   0  0  0  0  0  0  0  0  0  0  0  0
   21.5753   16.2014   59.0374 C   0  0  0  0  0  0  0  0  0  0  0  0
   22.6978   17.0200   58.9689 C   0  0  0  0  0  0  0  0  0  0  0  0
   23.4444   17.0288   57.7957 C   0  0  0  0  0  0  0  0  0  0  0  0
   24.6176   17.8807   57.7158 C   0  0  0  0  0  0  0  0  0  0  0  0
   24.9687   18.6652   58.8092 C   0  0  0  0  0  0  0  0  0  0  0  0
   26.0933   19.4789   58.7291 C   0  0  0  0  0  0  0  0  0  0  0  0
   26.8338   19.4814   57.5518 C   0  0  0  0  0  0  0  0  0  0  0  0
   26.4750   18.7158   56.5105 N   0  0  0  0  0  0  0  0  0  0  0  0
   25.3947   17.9221   56.5629 C   0  0  0  0  0  0  0  0  0  0  0  0
   23.0541   16.2477   56.7753 N   0  0  0  0  0  0  0  0  0  0  0  0
   21.8983   12.2721   55.8722 H   0  0  0  0  0  0  0  0  0  0  0  0
   20.8174   11.2506   56.5466 H   0  0  0  0  0  0  0  0  0  0  0  0
   21.0696   11.2240   54.9334 H   0  0  0  0  0  0  0  0  0  0  0  0
   18.4159   11.4295   55.3424 H   0  0  0  0  0  0  0  0  0  0  0  0
   16.6543   13.0256   55.0413 H   0  0  0  0  0  0  0  0  0  0  0  0
   16.9627   16.5226   55.4777 H   0  0  0  0  0  0  0  0  0  0  0  0
   17.3380   16.3741   52.4044 H   0  0  0  0  0  0  0  0  0  0  0  0
   16.8036   17.7506   50.5053 H   0  0  0  0  0  0  0  0  0  0  0  0
   14.5235   18.3739   50.1284 H   0  0  0  0  0  0  0  0  0  0  0  0
   13.3215   16.3311   53.4193 H   0  0  0  0  0  0  0  0  0  0  0  0
   19.3986   16.1162   55.4189 H   0  0  0  0  0  0  0  0  0  0  0  0
   22.2666   14.3649   55.1221 H   0  0  0  0  0  0  0  0  0  0  0  0
   21.0204   16.1762   59.8690 H   0  0  0  0  0  0  0  0  0  0  0  0
   22.9623   17.5901   59.7468 H   0  0  0  0  0  0  0  0  0  0  0  0
   24.4183   18.6443   59.6439 H   0  0  0  0  0  0  0  0  0  0  0  0
   26.3644   20.0513   59.5029 H   0  0  0  0  0  0  0  0  0  0  0  0
   27.6450   20.0618   57.4807 H   0  0  0  0  0  0  0  0  0  0  0  0
   25.1482   17.3604   55.7731 H   0  0  0  0  0  0  0  0  0  0  0  0
  1  2  1  0  0  0  0
  2  3  2  0  0  0  0
  3  4  1  0  0  0  0
  4  5  2  0  0  0  0
  5  6  1  0  0  0  0
  6  7  1  0  0  0  0
  7  8  2  0  0  0  0
  7  9  1  0  0  0  0
  9 10  2  0  0  0  0
 10 11  1  0  0  0  0
 11 12  2  0  0  0  0
 12 13  1  0  0  0  0
 13 14  2  0  0  0  0
  5 15  1  0  0  0  0
 15 16  2  0  0  0  0
 16 17  1  0  0  0  0
 17 18  1  0  0  0  0
 18 19  2  0  0  0  0
 19 20  1  0  0  0  0
 20 21  2  0  0  0  0
 21 22  1  0  0  0  0
 22 23  1  0  0  0  0
 23 24  2  0  0  0  0
 24 25  1  0  0  0  0
 25 26  2  0  0  0  0
 26 27  1  0  0  0  0
 27 28  2  0  0  0  0
 22 29  2  0  0  0  0
 16  2  1  0  0  0  0
 29 18  1  0  0  0  0
 14  9  1  0  0  0  0
 28 23  1  0  0  0  0
  1 30  1  0  0  0  0
  1 31  1  0  0  0  0
  1 32  1  0  0  0  0
  3 33  1  0  0  0  0
  4 34  1  0  0  0  0
  6 35  1  0  0  0  0
 10 36  1  0  0  0  0
 11 37  1  0  0  0  0
 12 38  1  0  0  0  0
 14 39  1  0  0  0  0
 15 40  1  0  0  0  0
 17 41  1  0  0  0  0
 20 42  1  0  0  0  0
 21 43  1  0  0  0  0
 24 44  1  0  0  0  0
 25 45  1  0  0  0  0
 26 46  1  0  0  0  0
 28 47  1  0  0  0  0
M  END
>  <docking-score>
-31.20

$$$$
6HD6_FYH_1
foFlexX   03192112273D 1   1.00000     0.00000     0
FlexX 4.5.0 fol007
 47 49  0  0  0  0            999 V2000
   21.5919   17.7183   56.4111 O   0  0  0  0  0  0  0  0  0  0  0  0
   22.0928   16.6273   56.7994 C   0  0  0  0  0  0  0  0  0  0  0  0
   23.4732   16.5806   57.1989 N   0  0  0  0  0  0  0  0  0  0  0  0
   24.1557   17.6633   57.7647 C   0  0  0  0  0  0  0  0  0  0  0  0
   23.7019   18.2129   58.9596 C   0  0  0  0  0  0  0  0  0  0  0  0
   24.3742   19.2896   59.5297 C   0  0  0  0  0  0  0  0  0  0  0  0
   25.4976   19.8038   58.8907 C   0  0  0  0  0  0  0  0  0  0  0  0
   26.1849   20.8907   59.4549 O   0  0  0  0  0  0  0  0  0  0  0  0
   27.2642   20.7917   60.3817 C   0  0  0  0  0  0  0  0  0  0  0  0
   27.6866   22.0636   60.7148 F   0  0  0  0  0  0  0  0  0  0  0  0
   26.8478   20.1447   61.5313 F   0  0  0  0  0  0  0  0  0  0  0  0
   28.3215   20.1060   59.8109 F   0  0  0  0  0  0  0  0  0  0  0  0
   25.9582   19.2609   57.6949 C   0  0  0  0  0  0  0  0  0  0  0  0
   25.2802   18.1846   57.1324 C   0  0  0  0  0  0  0  0  0  0  0  0
   21.2623   15.3986   56.7901 C   0  0  0  0  0  0  0  0  0  0  0  0
   21.3567   14.4914   57.8404 C   0  0  0  0  0  0  0  0  0  0  0  0
   20.5699   13.3443   57.8147 C   0  0  0  0  0  0  0  0  0  0  0  0
   19.6980   13.0978   56.7591 C   0  0  0  0  0  0  0  0  0  0  0  0
   19.6194   14.0190   55.7193 C   0  0  0  0  0  0  0  0  0  0  0  0
   18.6695   13.7604   54.5604 C   0  0  0  0  0  0  0  0  0  0  0  0
   17.3265   14.3356   54.8070 N   0  3  0  0  0  0  0  0  0  0  0  0
   17.3955   15.5336   55.6566 C   0  0  0  0  0  0  0  0  0  0  0  0
   17.5809   16.7650   54.7834 C   0  0  0  0  0  0  0  0  0  0  0  0
   16.4549   17.0040   53.9464 O   0  0  0  0  0  0  0  0  0  0  0  0
   15.7536   15.8156   53.6124 C   0  0  0  0  0  0  0  0  0  0  0  0
   16.7110   14.6364   53.5036 C   0  0  0  0  0  0  0  0  0  0  0  0
   20.3970   15.1725   55.7247 C   0  0  0  0  0  0  0  0  0  0  0  0
   23.9741   15.7255   57.0648 H   0  0  0  0  0  0  0  0  0  0  0  0
   22.8927   17.8341   59.4087 H   0  0  0  0  0  0  0  0  0  0  0  0
   24.0536   19.6889   60.3886 H   0  0  0  0  0  0  0  0  0  0  0  0
   26.7671   19.6402   57.2455 H   0  0  0  0  0  0  0  0  0  0  0  0
   25.6010   17.7853   56.2735 H   0  0  0  0  0  0  0  0  0  0  0  0
   21.9811   14.6613   58.6028 H   0  0  0  0  0  0  0  0  0  0  0  0
   20.6321   12.6873   58.5660 H   0  0  0  0  0  0  0  0  0  0  0  0
   19.1361   12.2707   56.7477 H   0  0  0  0  0  0  0  0  0  0  0  0
   18.5793   12.7729   54.4307 H   0  0  0  0  0  0  0  0  0  0  0  0
   19.0503   14.1719   53.7324 H   0  0  0  0  0  0  0  0  0  0  0  0
   16.7672   13.6488   55.2713 H   0  0  0  0  0  0  0  0  0  0  0  0
   18.1683   15.4519   56.2859 H   0  0  0  0  0  0  0  0  0  0  0  0
   16.5476   15.6206   56.1795 H   0  0  0  0  0  0  0  0  0  0  0  0
   17.7185   17.5606   55.3734 H   0  0  0  0  0  0  0  0  0  0  0  0
   18.3881   16.6333   54.2079 H   0  0  0  0  0  0  0  0  0  0  0  0
   15.2900   15.9437   52.7356 H   0  0  0  0  0  0  0  0  0  0  0  0
   15.0763   15.6237   54.3227 H   0  0  0  0  0  0  0  0  0  0  0  0
   16.2063   13.8333   53.1869 H   0  0  0  0  0  0  0  0  0  0  0  0
   17.4305   14.8588   52.8456 H   0  0  0  0  0  0  0  0  0  0  0  0
   20.3348   15.8297   54.9735 H   0  0  0  0  0  0  0  0  0  0  0  0
  1  2  2  0  0  0  0
  2  3  1  0  0  0  0
  3  4  1  0  0  0  0
  4  5  2  0  0  0  0
  5  6  1  0  0  0  0
  6  7  2  0  0  0  0
  7  8  1  0  0  0  0
  8  9  1  0  0  0  0
  9 10  1  0  0  0  0
  9 11  1  0  0  0  0
  9 12  1  0  0  0  0
  7 13  1  0  0  0  0
 13 14  2  0  0  0  0
  2 15  1  0  0  0  0
 15 16  2  0  0  0  0
 16 17  1  0  0  0  0
 17 18  2  0  0  0  0
 18 19  1  0  0  0  0
 19 20  1  0  0  0  0
 20 21  1  0  0  0  0
 21 22  1  0  0  0  0
 22 23  1  0  0  0  0
 23 24  1  0  0  0  0
 24 25  1  0  0  0  0
 25 26  1  0  0  0  0
 19 27  2  0  0  0  0
 14  4  1  0  0  0  0
 27 15  1  0  0  0  0
 26 21  1  0  0  0  0
  3 28  1  0  0  0  0
  5 29  1  0  0  0  0
  6 30  1  0  0  0  0
 13 31  1  0  0  0  0
 14 32  1  0  0  0  0
 16 33  1  0  0  0  0
 17 34  1  0  0  0  0
 18 35  1  0  0  0  0
 20 36  1  0  0  0  0
 20 37  1  0  0  0  0
 21 38  1  0  0  0  0
 22 39  1  0  0  0  0
 22 40  1  0  0  0  0
 23 41  1  0  0  0  0
 23 42  1  0  0  0  0
 25 43  1  0  0  0  0
 25 44  1  0  0  0  0
 26 45  1  0  0  0  0
 26 46  1  0  0  0  0
 27 47  1  0  0  0  0
M  CHG  1  21   1
M  END
>  <docking-score>
-21.98

$$$$
6HD6_FYH_2
foFlexX   03192112273D 1   1.00000     0.00000     0
FlexX 4.5.0 fol007
 47 49  0  0  0  0            999 V2000
   23.3471   17.1037   59.7858 O   0  0  0  0  0  0  0  0  0  0  0  0
   23.3564   17.5419   58.6027 C   0  0  0  0  0  0  0  0  0  0  0  0
   24.0699   18.7523   58.2980 N   0  0  0  0  0  0  0  0  0  0  0  0
   25.2428   19.1883   59.0070 C   0  0  0  0  0  0  0  0  0  0  0  0
   26.2063   19.9416   58.3436 C   0  0  0  0  0  0  0  0  0  0  0  0
   27.3443   20.3679   59.0214 C   0  0  0  0  0  0  0  0  0  0  0  0
   27.5022   20.0312   60.3617 C   0  0  0  0  0  0  0  0  0  0  0  0
   28.6016   20.4379   61.0302 O   0  0  0  0  0  0  0  0  0  0  0  0
   28.9917   21.7956   61.2260 C   0  0  0  0  0  0  0  0  0  0  0  0
   27.9920   22.4538   61.9156 F   0  0  0  0  0  0  0  0  0  0  0  0
   30.1581   21.8545   61.9674 F   0  0  0  0  0  0  0  0  0  0  0  0
   29.1764   22.4195   60.0052 F   0  0  0  0  0  0  0  0  0  0  0  0
   26.5440   19.2777   61.0332 C   0  0  0  0  0  0  0  0  0  0  0  0
   25.4094   18.8560   60.3478 C   0  0  0  0  0  0  0  0  0  0  0  0
   22.6063   16.8434   57.5774 C   0  0  0  0  0  0  0  0  0  0  0  0
   22.9201   17.0385   56.2362 C   0  0  0  0  0  0  0  0  0  0  0  0
   22.1895   16.3598   55.2661 C   0  0  0  0  0  0  0  0  0  0  0  0
   21.1579   15.4964   55.6205 C   0  0  0  0  0  0  0  0  0  0  0  0
   20.8614   15.3160   56.9679 C   0  0  0  0  0  0  0  0  0  0  0  0
   19.7430   14.3800   57.3647 C   0  0  0  0  0  0  0  0  0  0  0  0
   18.4512   14.7990   56.8025 N   0  3  0  0  0  0  0  0  0  0  0  0
   18.4044   16.2579   56.6438 C   0  0  0  0  0  0  0  0  0  0  0  0
   18.0580   16.6681   55.2159 C   0  0  0  0  0  0  0  0  0  0  0  0
   16.8608   16.0265   54.7941 O   0  0  0  0  0  0  0  0  0  0  0  0
   16.9213   14.6045   54.8747 C   0  0  0  0  0  0  0  0  0  0  0  0
   18.1867   14.0894   55.5392 C   0  0  0  0  0  0  0  0  0  0  0  0
   21.5791   15.9846   57.9544 C   0  0  0  0  0  0  0  0  0  0  0  0
   23.7313   19.3237   57.5504 H   0  0  0  0  0  0  0  0  0  0  0  0
   26.0810   20.1765   57.3797 H   0  0  0  0  0  0  0  0  0  0  0  0
   28.0403   20.9100   58.5506 H   0  0  0  0  0  0  0  0  0  0  0  0
   26.6697   19.0421   61.9969 H   0  0  0  0  0  0  0  0  0  0  0  0
   24.7134   18.3140   60.8188 H   0  0  0  0  0  0  0  0  0  0  0  0
   23.6602   17.6576   55.9733 H   0  0  0  0  0  0  0  0  0  0  0  0
   22.4091   16.4947   54.2999 H   0  0  0  0  0  0  0  0  0  0  0  0
   20.6371   15.0126   54.9172 H   0  0  0  0  0  0  0  0  0  0  0  0
   19.6720   14.3658   58.3621 H   0  0  0  0  0  0  0  0  0  0  0  0
   19.9573   13.4613   57.0327 H   0  0  0  0  0  0  0  0  0  0  0  0
   17.7371   14.5400   57.4529 H   0  0  0  0  0  0  0  0  0  0  0  0
   19.2990   16.6369   56.8803 H   0  0  0  0  0  0  0  0  0  0  0  0
   17.7115   16.6276   57.2628 H   0  0  0  0  0  0  0  0  0  0  0  0
   17.9315   17.6593   55.1790 H   0  0  0  0  0  0  0  0  0  0  0  0
   18.8057   16.4045   54.6065 H   0  0  0  0  0  0  0  0  0  0  0  0
   16.8764   14.2326   53.9476 H   0  0  0  0  0  0  0  0  0  0  0  0
   16.1340   14.2835   55.4011 H   0  0  0  0  0  0  0  0  0  0  0  0
   18.0813   13.1133   55.7291 H   0  0  0  0  0  0  0  0  0  0  0  0
   18.9596   14.2269   54.9197 H   0  0  0  0  0  0  0  0  0  0  0  0
   21.3598   15.8497   58.9207 H   0  0  0  0  0  0  0  0  0  0  0  0
  1  2  2  0  0  0  0
  2  3  1  0  0  0  0
  3  4  1  0  0  0  0
  4  5  2  0  0  0  0
  5  6  1  0  0  0  0
  6  7  2  0  0  0  0
  7  8  1  0  0  0  0
  8  9  1  0  0  0  0
  9 10  1  0  0  0  0
  9 11  1  0  0  0  0
  9 12  1  0  0  0  0
  7 13  1  0  0  0  0
 13 14  2  0  0  0  0
  2 15  1  0  0  0  0
 15 16  2  0  0  0  0
 16 17  1  0  0  0  0
 17 18  2  0  0  0  0
 18 19  1  0  0  0  0
 19 20  1  0  0  0  0
 20 21  1  0  0  0  0
 21 22  1  0  0  0  0
 22 23  1  0  0  0  0
 23 24  1  0  0  0  0
 24 25  1  0  0  0  0
 25 26  1  0  0  0  0
 19 27  2  0  0  0  0
 14  4  1  0  0  0  0
 27 15  1  0  0  0  0
 26 21  1  0  0  0  0
  3 28  1  0  0  0  0
  5 29  1  0  0  0  0
  6 30  1  0  0  0  0
 13 31  1  0  0  0  0
 14 32  1  0  0  0  0
 16 33  1  0  0  0  0
 17 34  1  0  0  0  0
 18 35  1  0  0  0  0
 20 36  1  0  0  0  0
 20 37  1  0  0  0  0
 21 38  1  0  0  0  0
 22 39  1  0  0  0  0
 22 40  1  0  0  0  0
 23 41  1  0  0  0  0
 23 42  1  0  0  0  0
 25 43  1  0  0  0  0
 25 44  1  0  0  0  0
 26 45  1  0  0  0  0
 26 46  1  0  0  0  0
 27 47  1  0  0  0  0
M  CHG  1  21   1
M  END
>  <docking-score>
-21.31

$$$$
6HD6_FYH_3
foFlexX   03192112273D 1   1.00000     0.00000     0
FlexX 4.5.0 fol007
 47 49  0  0  0  0            999 V2000
   21.4690   16.1133   58.2662 O   0  0  0  0  0  0  0  0  0  0  0  0
   22.1470   16.1548   57.2026 C   0  0  0  0  0  0  0  0  0  0  0  0
   21.6775   15.4641   56.0323 N   0  0  0  0  0  0  0  0  0  0  0  0
   20.2867   15.2482   55.7363 C   0  0  0  0  0  0  0  0  0  0  0  0
   19.4397   16.3410   55.5804 C   0  0  0  0  0  0  0  0  0  0  0  0
   18.0927   16.1419   55.2937 C   0  0  0  0  0  0  0  0  0  0  0  0
   17.6103   14.8434   55.1673 C   0  0  0  0  0  0  0  0  0  0  0  0
   16.3058   14.6368   54.8902 O   0  0  0  0  0  0  0  0  0  0  0  0
   15.6264   15.1050   53.7272 C   0  0  0  0  0  0  0  0  0  0  0  0
   16.2329   14.5691   52.6077 F   0  0  0  0  0  0  0  0  0  0  0  0
   14.3032   14.7022   53.7533 F   0  0  0  0  0  0  0  0  0  0  0  0
   15.6983   16.4847   53.6558 F   0  0  0  0  0  0  0  0  0  0  0  0
   18.4499   13.7444   55.3222 C   0  0  0  0  0  0  0  0  0  0  0  0
   19.7951   13.9528   55.6082 C   0  0  0  0  0  0  0  0  0  0  0  0
   23.4435   16.8748   57.1912 C   0  0  0  0  0  0  0  0  0  0  0  0
   24.3818   16.5953   56.2029 C   0  0  0  0  0  0  0  0  0  0  0  0
   25.5925   17.2806   56.2081 C   0  0  0  0  0  0  0  0  0  0  0  0
   25.8716   18.2334   57.1825 C   0  0  0  0  0  0  0  0  0  0  0  0
   24.9185   18.4973   58.1612 C   0  0  0  0  0  0  0  0  0  0  0  0
   25.2124   19.5371   59.2311 C   0  0  0  0  0  0  0  0  0  0  0  0
   26.6606   19.6286   59.5307 N   0  3  0  0  0  0  0  0  0  0  0  0
   27.1166   20.9967   59.2443 C   0  0  0  0  0  0  0  0  0  0  0  0
   28.5657   21.1633   59.6795 C   0  0  0  0  0  0  0  0  0  0  0  0
   28.7948   20.7160   61.0149 O   0  0  0  0  0  0  0  0  0  0  0  0
   27.6149   20.3088   61.7053 C   0  0  0  0  0  0  0  0  0  0  0  0
   26.8918   19.2230   60.9225 C   0  0  0  0  0  0  0  0  0  0  0  0
   23.7013   17.8238   58.1750 C   0  0  0  0  0  0  0  0  0  0  0  0
   22.3567   15.1139   55.3873 H   0  0  0  0  0  0  0  0  0  0  0  0
   19.7990   17.2695   55.6743 H   0  0  0  0  0  0  0  0  0  0  0  0
   17.4788   16.9230   55.1800 H   0  0  0  0  0  0  0  0  0  0  0  0
   18.0905   12.8159   55.2290 H   0  0  0  0  0  0  0  0  0  0  0  0
   20.4090   13.1716   55.7219 H   0  0  0  0  0  0  0  0  0  0  0  0
   24.1888   15.9118   55.4990 H   0  0  0  0  0  0  0  0  0  0  0  0
   26.2722   17.0854   55.5009 H   0  0  0  0  0  0  0  0  0  0  0  0
   26.7444   18.7215   57.1796 H   0  0  0  0  0  0  0  0  0  0  0  0
   24.7245   19.2870   60.0675 H   0  0  0  0  0  0  0  0  0  0  0  0
   24.8914   20.4288   58.9120 H   0  0  0  0  0  0  0  0  0  0  0  0
   27.1505   18.9973   58.9295 H   0  0  0  0  0  0  0  0  0  0  0  0
   26.5440   21.6478   59.7425 H   0  0  0  0  0  0  0  0  0  0  0  0
   27.0433   21.1716   58.2624 H   0  0  0  0  0  0  0  0  0  0  0  0
   29.1481   20.6358   59.0611 H   0  0  0  0  0  0  0  0  0  0  0  0
   28.8080   22.1317   59.6206 H   0  0  0  0  0  0  0  0  0  0  0  0
   27.0083   21.0963   61.8140 H   0  0  0  0  0  0  0  0  0  0  0  0
   27.8658   19.9544   62.6061 H   0  0  0  0  0  0  0  0  0  0  0  0
   27.4472   18.3914   60.9310 H   0  0  0  0  0  0  0  0  0  0  0  0
   26.0107   19.0398   61.3585 H   0  0  0  0  0  0  0  0  0  0  0  0
   23.0216   18.0190   58.8819 H   0  0  0  0  0  0  0  0  0  0  0  0
  1  2  2  0  0  0  0
  2  3  1  0  0  0  0
  3  4  1  0  0  0  0
  4  5  2  0  0  0  0
  5  6  1  0  0  0  0
  6  7  2  0  0  0  0
  7  8  1  0  0  0  0
  8  9  1  0  0  0  0
  9 10  1  0  0  0  0
  9 11  1  0  0  0  0
  9 12  1  0  0  0  0
  7 13  1  0  0  0  0
 13 14  2  0  0  0  0
  2 15  1  0  0  0  0
 15 16  2  0  0  0  0
 16 17  1  0  0  0  0
 17 18  2  0  0  0  0
 18 19  1  0  0  0  0
 19 20  1  0  0  0  0
 20 21  1  0  0  0  0
 21 22  1  0  0  0  0
 22 23  1  0  0  0  0
 23 24  1  0  0  0  0
 24 25  1  0  0  0  0
 25 26  1  0  0  0  0
 19 27  2  0  0  0  0
 14  4  1  0  0  0  0
 27 15  1  0  0  0  0
 26 21  1  0  0  0  0
  3 28  1  0  0  0  0
  5 29  1  0  0  0  0
  6 30  1  0  0  0  0
 13 31  1  0  0  0  0
 14 32  1  0  0  0  0
 16 33  1  0  0  0  0
 17 34  1  0  0  0  0
 18 35  1  0  0  0  0
 20 36  1  0  0  0  0
 20 37  1  0  0  0  0
 21 38  1  0  0  0  0
 22 39  1  0  0  0  0
 22 40  1  0  0  0  0
 23 41  1  0  0  0  0
 23 42  1  0  0  0  0
 25 43  1  0  0  0  0
 25 44  1  0  0  0  0
 26 45  1  0  0  0  0
 26 46  1  0  0  0  0
 27 47  1  0  0  0  0
M  CHG  1  21   1
M  END
>  <docking-score>
-20.67

$$$$
6HD4_FYW_1
foFlexX   03192112273D 1   1.00000     0.00000     0
FlexX 4.5.0 fol007
 50 53  0  0  0  0            999 V2000
   12.1745   14.1095   57.1534 O   0  0  0  0  0  0  0  0  0  0  0  0
   12.2154   14.2054   55.8973 C   0  0  0  0  0  0  0  0  0  0  0  0
   13.4709   13.9969   55.2288 N   0  0  0  0  0  0  0  0  0  0  0  0
   13.8486   14.6287   53.9927 C   0  0  0  0  0  0  0  0  0  0  0  0
   13.9150   16.0167   53.9227 C   0  0  0  0  0  0  0  0  0  0  0  0
   14.2796   16.6365   52.7314 C   0  0  0  0  0  0  0  0  0  0  0  0
   14.5735   15.8528   51.6206 C   0  0  0  0  0  0  0  0  0  0  0  0
   14.9275   16.4417   50.4592 O   0  0  0  0  0  0  0  0  0  0  0  0
   16.0576   17.2922   50.2784 C   0  0  0  0  0  0  0  0  0  0  0  0
   17.2218   16.6095   50.5834 F   0  0  0  0  0  0  0  0  0  0  0  0
   15.9424   18.3768   51.1259 F   0  0  0  0  0  0  0  0  0  0  0  0
   16.1065   17.7492   48.9736 F   0  0  0  0  0  0  0  0  0  0  0  0
   14.5091   14.4639   51.6811 C   0  0  0  0  0  0  0  0  0  0  0  0
   14.1441   13.8527   52.8761 C   0  0  0  0  0  0  0  0  0  0  0  0
   10.9926   14.4825   55.1674 C   0  0  0  0  0  0  0  0  0  0  0  0
    9.7821   13.8935   55.5185 C   0  0  0  0  0  0  0  0  0  0  0  0
    8.6601   14.1610   54.8336 N   0  0  0  0  0  0  0  0  0  0  0  0
    8.6613   15.0021   53.7885 C   0  0  0  0  0  0  0  0  0  0  0  0
    7.4681   15.2598   53.0932 N   0  0  0  0  0  0  0  0  0  0  0  0
    6.4933   16.3026   53.4170 C   0  0  0  0  0  0  0  0  0  0  0  0
    5.1975   15.7556   52.8526 C   0  0  0  0  0  0  0  0  0  0  0  0
    5.6711   15.1746   51.5364 C   0  0  1  0  0  0  0  0  0  0  0  0
    5.8578   16.1678   50.5631 O   0  0  0  0  0  0  0  0  0  0  0  0
    6.9723   14.5090   51.9408 C   0  0  0  0  0  0  0  0  0  0  0  0
    9.8441   15.6192   53.3930 C   0  0  0  0  0  0  0  0  0  0  0  0
    9.8841   16.5338   52.2682 C   0  0  0  0  0  0  0  0  0  0  0  0
   10.4793   17.7852   52.3860 C   0  0  0  0  0  0  0  0  0  0  0  0
   10.5080   18.6150   51.3334 N   0  0  0  0  0  0  0  0  0  0  0  0
    9.9691   18.2630   50.1565 C   0  0  0  0  0  0  0  0  0  0  0  0
    9.3899   17.0616   50.0169 N   0  0  0  0  0  0  0  0  0  0  0  0
    9.3354   16.1942   51.0367 C   0  0  0  0  0  0  0  0  0  0  0  0
   11.0207   15.3584   54.0873 C   0  0  0  0  0  0  0  0  0  0  0  0
   14.1259   13.3705   55.6515 H   0  0  0  0  0  0  0  0  0  0  0  0
   13.7008   16.5688   54.7285 H   0  0  0  0  0  0  0  0  0  0  0  0
   14.3297   17.6337   52.6746 H   0  0  0  0  0  0  0  0  0  0  0  0
   14.7227   13.9118   50.8751 H   0  0  0  0  0  0  0  0  0  0  0  0
   14.0941   12.8556   52.9329 H   0  0  0  0  0  0  0  0  0  0  0  0
    9.7479   13.2615   56.2928 H   0  0  0  0  0  0  0  0  0  0  0  0
    6.7369   17.1686   52.9804 H   0  0  0  0  0  0  0  0  0  0  0  0
    6.4256   16.4352   54.4058 H   0  0  0  0  0  0  0  0  0  0  0  0
    4.8084   15.0506   53.4454 H   0  0  0  0  0  0  0  0  0  0  0  0
    4.5242   16.4814   52.7115 H   0  0  0  0  0  0  0  0  0  0  0  0
    5.0209   14.4891   51.2087 H   0  0  0  0  0  0  0  0  0  0  0  0
    6.4678   16.8747   50.9210 H   0  0  0  0  0  0  0  0  0  0  0  0
    6.8111   13.5544   52.1914 H   0  0  0  0  0  0  0  0  0  0  0  0
    7.6315   14.5498   51.1899 H   0  0  0  0  0  0  0  0  0  0  0  0
   10.8858   18.0659   53.2555 H   0  0  0  0  0  0  0  0  0  0  0  0
    9.9993   18.8965   49.3833 H   0  0  0  0  0  0  0  0  0  0  0  0
    8.9000   15.3026   50.9120 H   0  0  0  0  0  0  0  0  0  0  0  0
   11.8772   15.7956   53.8130 H   0  0  0  0  0  0  0  0  0  0  0  0
  1  2  2  0  0  0  0
  2  3  1  0  0  0  0
  3  4  1  0  0  0  0
  4  5  2  0  0  0  0
  5  6  1  0  0  0  0
  6  7  2  0  0  0  0
  7  8  1  0  0  0  0
  8  9  1  0  0  0  0
  9 10  1  0  0  0  0
  9 11  1  0  0  0  0
  9 12  1  0  0  0  0
  7 13  1  0  0  0  0
 13 14  2  0  0  0  0
  2 15  1  0  0  0  0
 15 16  2  0  0  0  0
 16 17  1  0  0  0  0
 17 18  2  0  0  0  0
 18 19  1  0  0  0  0
 19 20  1  0  0  0  0
 20 21  1  0  0  0  0
 21 22  1  0  0  0  0
 22 23  1  0  0  0  0
 22 24  1  0  0  0  0
 18 25  1  0  0  0  0
 25 26  1  0  0  0  0
 26 27  2  0  0  0  0
 27 28  1  0  0  0  0
 28 29  2  0  0  0  0
 29 30  1  0  0  0  0
 30 31  2  0  0  0  0
 25 32  2  0  0  0  0
 14  4  1  0  0  0  0
 32 15  1  0  0  0  0
 24 19  1  0  0  0  0
 31 26  1  0  0  0  0
  3 33  1  0  0  0  0
  5 34  1  0  0  0  0
  6 35  1  0  0  0  0
 13 36  1  0  0  0  0
 14 37  1  0  0  0  0
 16 38  1  0  0  0  0
 20 39  1  0  0  0  0
 20 40  1  0  0  0  0
 21 41  1  0  0  0  0
 21 42  1  0  0  0  0
 22 43  1  0  0  0  0
 23 44  1  0  0  0  0
 24 45  1  0  0  0  0
 24 46  1  0  0  0  0
 27 47  1  0  0  0  0
 29 48  1  0  0  0  0
 31 49  1  0  0  0  0
 32 50  1  0  0  0  0
M  END
>  <docking-score>
-15.29

$$$$
6HD4_FYW_2
foFlexX   03192112273D 1   1.00000     0.00000     0
FlexX 4.5.0 fol007
 50 53  0  0  0  0            999 V2000
    6.2842   16.4273   50.4174 O   0  0  0  0  0  0  0  0  0  0  0  0
    7.0945   15.6873   51.0365 C   0  0  0  0  0  0  0  0  0  0  0  0
    6.6200   14.4418   51.5754 N   0  0  0  0  0  0  0  0  0  0  0  0
    7.1524   13.8100   52.7533 C   0  0  0  0  0  0  0  0  0  0  0  0
    7.1103   14.4810   53.9714 C   0  0  0  0  0  0  0  0  0  0  0  0
    7.6227   13.8778   55.1159 C   0  0  0  0  0  0  0  0  0  0  0  0
    8.1738   12.6040   55.0233 C   0  0  0  0  0  0  0  0  0  0  0  0
    8.6747   12.0084   56.1257 O   0  0  0  0  0  0  0  0  0  0  0  0
    8.2191   10.7731   56.6732 C   0  0  0  0  0  0  0  0  0  0  0  0
    8.3662    9.7573   55.7453 F   0  0  0  0  0  0  0  0  0  0  0  0
    6.8810   10.8920   56.9949 F   0  0  0  0  0  0  0  0  0  0  0  0
    8.9285   10.4700   57.8214 F   0  0  0  0  0  0  0  0  0  0  0  0
    8.2207   11.9257   53.8090 C   0  0  0  0  0  0  0  0  0  0  0  0
    7.7059   12.5361   52.6701 C   0  0  0  0  0  0  0  0  0  0  0  0
    8.5134   16.1045   51.1534 C   0  0  0  0  0  0  0  0  0  0  0  0
    9.0739   17.0395   50.2890 C   0  0  0  0  0  0  0  0  0  0  0  0
   10.3587   17.4067   50.4087 N   0  0  0  0  0  0  0  0  0  0  0  0
   11.1493   16.8891   51.3610 C   0  0  0  0  0  0  0  0  0  0  0  0
   12.4860   17.2947   51.4575 N   0  0  0  0  0  0  0  0  0  0  0  0
   13.6570   16.4207   51.3728 C   0  0  0  0  0  0  0  0  0  0  0  0
   14.7120   17.1747   52.1571 C   0  0  0  0  0  0  0  0  0  0  0  0
   14.4637   18.5956   51.6952 C   0  0  1  0  0  0  0  0  0  0  0  0
   15.0162   18.8386   50.4151 O   0  0  0  0  0  0  0  0  0  0  0  0
   12.9485   18.6614   51.6933 C   0  0  0  0  0  0  0  0  0  0  0  0
   10.6411   15.9495   52.2526 C   0  0  0  0  0  0  0  0  0  0  0  0
   11.4655   15.3680   53.2946 C   0  0  0  0  0  0  0  0  0  0  0  0
   10.9077   14.9560   54.5000 C   0  0  0  0  0  0  0  0  0  0  0  0
   11.6869   14.4185   55.4495 N   0  0  0  0  0  0  0  0  0  0  0  0
   13.0066   14.2682   55.2623 C   0  0  0  0  0  0  0  0  0  0  0  0
   13.5686   14.6569   54.1084 N   0  0  0  0  0  0  0  0  0  0  0  0
   12.8352   15.1986   53.1265 C   0  0  0  0  0  0  0  0  0  0  0  0
    9.3121   15.5527   52.1494 C   0  0  0  0  0  0  0  0  0  0  0  0
    5.8692   13.9837   51.0995 H   0  0  0  0  0  0  0  0  0  0  0  0
    6.7119   15.3966   54.0244 H   0  0  0  0  0  0  0  0  0  0  0  0
    7.5951   14.3544   55.9946 H   0  0  0  0  0  0  0  0  0  0  0  0
    8.6198   11.0103   53.7559 H   0  0  0  0  0  0  0  0  0  0  0  0
    7.7335   12.0594   51.7915 H   0  0  0  0  0  0  0  0  0  0  0  0
    8.5110   17.4438   49.5681 H   0  0  0  0  0  0  0  0  0  0  0  0
   13.9405   16.2927   50.4224 H   0  0  0  0  0  0  0  0  0  0  0  0
   13.4703   15.5302   51.7877 H   0  0  0  0  0  0  0  0  0  0  0  0
   14.5729   17.0803   53.1429 H   0  0  0  0  0  0  0  0  0  0  0  0
   15.6338   16.8682   51.9198 H   0  0  0  0  0  0  0  0  0  0  0  0
   14.8357   19.2438   52.3596 H   0  0  0  0  0  0  0  0  0  0  0  0
   15.9172   19.2607   50.5156 H   0  0  0  0  0  0  0  0  0  0  0  0
   12.6141   18.9941   52.5750 H   0  0  0  0  0  0  0  0  0  0  0  0
   12.6280   19.2671   50.9651 H   0  0  0  0  0  0  0  0  0  0  0  0
    9.9259   15.0605   54.6586 H   0  0  0  0  0  0  0  0  0  0  0  0
   13.5714   13.8664   55.9831 H   0  0  0  0  0  0  0  0  0  0  0  0
   13.2730   15.4810   52.2730 H   0  0  0  0  0  0  0  0  0  0  0  0
    8.9350   14.8782   52.7842 H   0  0  0  0  0  0  0  0  0  0  0  0
  1  2  2  0  0  0  0
  2  3  1  0  0  0  0
  3  4  1  0  0  0  0
  4  5  2  0  0  0  0
  5  6  1  0  0  0  0
  6  7  2  0  0  0  0
  7  8  1  0  0  0  0
  8  9  1  0  0  0  0
  9 10  1  0  0  0  0
  9 11  1  0  0  0  0
  9 12  1  0  0  0  0
  7 13  1  0  0  0  0
 13 14  2  0  0  0  0
  2 15  1  0  0  0  0
 15 16  2  0  0  0  0
 16 17  1  0  0  0  0
 17 18  2  0  0  0  0
 18 19  1  0  0  0  0
 19 20  1  0  0  0  0
 20 21  1  0  0  0  0
 21 22  1  0  0  0  0
 22 23  1  0  0  0  0
 22 24  1  0  0  0  0
 18 25  1  0  0  0  0
 25 26  1  0  0  0  0
 26 27  2  0  0  0  0
 27 28  1  0  0  0  0
 28 29  2  0  0  0  0
 29 30  1  0  0  0  0
 30 31  2  0  0  0  0
 25 32  2  0  0  0  0
 14  4  1  0  0  0  0
 32 15  1  0  0  0  0
 24 19  1  0  0  0  0
 31 26  1  0  0  0  0
  3 33  1  0  0  0  0
  5 34  1  0  0  0  0
  6 35  1  0  0  0  0
 13 36  1  0  0  0  0
 14 37  1  0  0  0  0
 16 38  1  0  0  0  0
 20 39  1  0  0  0  0
 20 40  1  0  0  0  0
 21 41  1  0  0  0  0
 21 42  1  0  0  0  0
 22 43  1  0  0  0  0
 23 44  1  0  0  0  0
 24 45  1  0  0  0  0
 24 46  1  0  0  0  0
 27 47  1  0  0  0  0
 29 48  1  0  0  0  0
 31 49  1  0  0  0  0
 32 50  1  0  0  0  0
M  END
>  <docking-score>
-12.13

$$$$
6HD4_FYW_3
foFlexX   03192112273D 1   1.00000     0.00000     0
FlexX 4.5.0 fol007
 50 53  0  0  0  0            999 V2000
   12.5872   14.0207   57.1316 O   0  0  0  0  0  0  0  0  0  0  0  0
   12.5644   14.1099   55.8746 C   0  0  0  0  0  0  0  0  0  0  0  0
   13.8036   14.0133   55.1523 N   0  0  0  0  0  0  0  0  0  0  0  0
   14.0669   14.6675   53.8983 C   0  0  0  0  0  0  0  0  0  0  0  0
   14.0010   16.0551   53.8200 C   0  0  0  0  0  0  0  0  0  0  0  0
   14.2543   16.6965   52.6114 C   0  0  0  0  0  0  0  0  0  0  0  0
   14.5711   15.9345   51.4918 C   0  0  0  0  0  0  0  0  0  0  0  0
   14.8181   16.5444   50.3136 O   0  0  0  0  0  0  0  0  0  0  0  0
   16.0986   16.9856   49.8675 C   0  0  0  0  0  0  0  0  0  0  0  0
   16.9709   15.9146   49.7880 F   0  0  0  0  0  0  0  0  0  0  0  0
   16.5982   17.9005   50.7738 F   0  0  0  0  0  0  0  0  0  0  0  0
   15.9881   17.5971   48.6316 F   0  0  0  0  0  0  0  0  0  0  0  0
   14.6387   14.5461   51.5606 C   0  0  0  0  0  0  0  0  0  0  0  0
   14.3844   13.9133   52.7729 C   0  0  0  0  0  0  0  0  0  0  0  0
   11.2906   14.2668   55.1982 C   0  0  0  0  0  0  0  0  0  0  0  0
   10.1565   13.5710   55.6045 C   0  0  0  0  0  0  0  0  0  0  0  0
    8.9858   13.7280   54.9686 N   0  0  0  0  0  0  0  0  0  0  0  0
    8.8634   14.5572   53.9212 C   0  0  0  0  0  0  0  0  0  0  0  0
    7.6235   14.6975   53.2788 N   0  0  0  0  0  0  0  0  0  0  0  0
    6.3967   15.1737   53.9030 C   0  0  0  0  0  0  0  0  0  0  0  0
    5.7652   15.9881   52.7891 C   0  0  0  0  0  0  0  0  0  0  0  0
    6.1048   15.2151   51.5277 C   0  0  1  0  0  0  0  0  0  0  0  0
    6.3651   16.1331   50.4991 O   0  0  0  0  0  0  0  0  0  0  0  0
    7.3390   14.4060   51.8709 C   0  0  0  0  0  0  0  0  0  0  0  0
    9.9654   15.2780   53.4716 C   0  0  0  0  0  0  0  0  0  0  0  0
    9.8714   16.1834   52.3426 C   0  0  0  0  0  0  0  0  0  0  0  0
    9.9554   17.5599   52.5220 C   0  0  0  0  0  0  0  0  0  0  0  0
    9.8686   18.3797   51.4647 N   0  0  0  0  0  0  0  0  0  0  0  0
    9.6997   17.8980   50.2242 C   0  0  0  0  0  0  0  0  0  0  0  0
    9.6165   16.5745   50.0246 N   0  0  0  0  0  0  0  0  0  0  0  0
    9.6984   15.7115   51.0462 C   0  0  0  0  0  0  0  0  0  0  0  0
   11.1903   15.1328   54.1144 C   0  0  0  0  0  0  0  0  0  0  0  0
   14.5317   13.4537   55.5482 H   0  0  0  0  0  0  0  0  0  0  0  0
   13.7716   16.5913   54.6323 H   0  0  0  0  0  0  0  0  0  0  0  0
   14.2090   17.6935   52.5486 H   0  0  0  0  0  0  0  0  0  0  0  0
   14.8674   14.0098   50.7481 H   0  0  0  0  0  0  0  0  0  0  0  0
   14.4298   12.9163   52.8356 H   0  0  0  0  0  0  0  0  0  0  0  0
   10.2149   12.9447   56.3820 H   0  0  0  0  0  0  0  0  0  0  0  0
    6.5934   15.7428   54.7014 H   0  0  0  0  0  0  0  0  0  0  0  0
    5.8082   14.4118   54.1735 H   0  0  0  0  0  0  0  0  0  0  0  0
    4.7747   16.0496   52.9119 H   0  0  0  0  0  0  0  0  0  0  0  0
    6.1549   16.9084   52.7573 H   0  0  0  0  0  0  0  0  0  0  0  0
    5.3497   14.6105   51.2741 H   0  0  0  0  0  0  0  0  0  0  0  0
    6.1936   17.0613   50.8295 H   0  0  0  0  0  0  0  0  0  0  0  0
    7.1621   13.4297   51.7456 H   0  0  0  0  0  0  0  0  0  0  0  0
    8.1085   14.6820   51.2950 H   0  0  0  0  0  0  0  0  0  0  0  0
   10.0805   17.9381   53.4392 H   0  0  0  0  0  0  0  0  0  0  0  0
    9.6358   18.5257   49.4484 H   0  0  0  0  0  0  0  0  0  0  0  0
    9.6352   14.7280   50.8763 H   0  0  0  0  0  0  0  0  0  0  0  0
   11.9897   15.6453   53.8010 H   0  0  0  0  0  0  0  0  0  0  0  0
  1  2  2  0  0  0  0
  2  3  1  0  0  0  0
  3  4  1  0  0  0  0
  4  5  2  0  0  0  0
  5  6  1  0  0  0  0
  6  7  2  0  0  0  0
  7  8  1  0  0  0  0
  8  9  1  0  0  0  0
  9 10  1  0  0  0  0
  9 11  1  0  0  0  0
  9 12  1  0  0  0  0
  7 13  1  0  0  0  0
 13 14  2  0  0  0  0
  2 15  1  0  0  0  0
 15 16  2  0  0  0  0
 16 17  1  0  0  0  0
 17 18  2  0  0  0  0
 18 19  1  0  0  0  0
 19 20  1  0  0  0  0
 20 21  1  0  0  0  0
 21 22  1  0  0  0  0
 22 23  1  0  0  0  0
 22 24  1  0  0  0  0
 18 25  1  0  0  0  0
 25 26  1  0  0  0  0
 26 27  2  0  0  0  0
 27 28  1  0  0  0  0
 28 29  2  0  0  0  0
 29 30  1  0  0  0  0
 30 31  2  0  0  0  0
 25 32  2  0  0  0  0
 14  4  1  0  0  0  0
 32 15  1  0  0  0  0
 24 19  1  0  0  0  0
 31 26  1  0  0  0  0
  3 33  1  0  0  0  0
  5 34  1  0  0  0  0
  6 35  1  0  0  0  0
 13 36  1  0  0  0  0
 14 37  1  0  0  0  0
 16 38  1  0  0  0  0
 20 39  1  0  0  0  0
 20 40  1  0  0  0  0
 21 41  1  0  0  0  0
 21 42  1  0  0  0  0
 22 43  1  0  0  0  0
 23 44  1  0  0  0  0
 24 45  1  0  0  0  0
 24 46  1  0  0  0  0
 27 47  1  0  0  0  0
 29 48  1  0  0  0  0
 31 49  1  0  0  0  0
 32 50  1  0  0  0  0
M  END
>  <docking-score>
-12.01

$$$$
2QOH_P3Y_1
foFlexX   03192112273D 1   1.00000     0.00000     0
FlexX 4.5.0 fol007
 48 51  0  0  0  0            999 V2000
   21.9740   13.1421   57.4023 C   0  0  0  0  0  0  0  0  0  0  0  0
   22.5408   14.4471   57.4331 O   0  0  0  0  0  0  0  0  0  0  0  0
   22.0791   15.4055   58.2649 C   0  0  0  0  0  0  0  0  0  0  0  0
   21.0191   15.0986   59.1115 C   0  0  0  0  0  0  0  0  0  0  0  0
   20.5206   16.0642   59.9803 C   0  0  0  0  0  0  0  0  0  0  0  0
   21.0819   17.3368   60.0022 C   0  0  0  0  0  0  0  0  0  0  0  0
   22.1426   17.6441   59.1559 C   0  0  0  0  0  0  0  0  0  0  0  0
   22.6408   16.6786   58.2868 C   0  0  0  0  0  0  0  0  0  0  0  0
   23.7461   16.9991   57.4040 C   0  0  0  0  0  0  0  0  0  0  0  0
   23.8560   16.5924   56.1072 C   0  0  0  0  0  0  0  0  0  0  0  0
   25.0286   17.0987   55.6302 N   0  0  0  0  0  0  0  0  0  0  0  0
   25.6579   17.8180   56.6181 C   0  0  0  0  0  0  0  0  0  0  0  0
   26.8085   18.5073   56.6868 N   0  0  0  0  0  0  0  0  0  0  0  0
   27.1968   19.1417   57.8047 C   0  0  0  0  0  0  0  0  0  0  0  0
   26.4230   19.1196   58.9620 C   0  0  0  0  0  0  0  0  0  0  0  0
   26.8049   19.7944   60.1911 C   0  0  0  0  0  0  0  0  0  0  0  0
   26.4177   19.3086   61.4356 C   0  0  0  0  0  0  0  0  0  0  0  0
   26.7799   19.9450   62.5596 N   0  0  0  0  0  0  0  0  0  0  0  0
   27.5222   21.0616   62.5229 C   0  0  0  0  0  0  0  0  0  0  0  0
   27.9368   21.5910   61.3055 C   0  0  0  0  0  0  0  0  0  0  0  0
   28.7394   22.7968   61.2438 C   0  0  0  0  0  0  0  0  0  0  0  0
   28.2703   23.8630   61.7282 O   0  0  0  0  0  0  0  0  0  0  0  0
   30.0470   22.8077   60.6363 N   0  0  0  0  0  0  0  0  0  0  0  0
   30.8297   24.0473   60.5798 C   0  0  0  0  0  0  0  0  0  0  0  0
   30.6503   21.5379   60.2238 C   0  0  0  0  0  0  0  0  0  0  0  0
   27.5748   20.9508   60.1251 C   0  0  0  0  0  0  0  0  0  0  0  0
   25.2268   18.4149   58.9270 C   0  0  0  0  0  0  0  0  0  0  0  0
   24.8764   17.7786   57.7431 C   0  0  0  0  0  0  0  0  0  0  0  0
   21.0064   13.2046   57.1575 H   0  0  0  0  0  0  0  0  0  0  0  0
   22.4542   12.5860   56.7239 H   0  0  0  0  0  0  0  0  0  0  0  0
   22.0631   12.7186   58.3038 H   0  0  0  0  0  0  0  0  0  0  0  0
   20.6153   14.1840   59.0957 H   0  0  0  0  0  0  0  0  0  0  0  0
   19.7586   15.8434   60.5891 H   0  0  0  0  0  0  0  0  0  0  0  0
   20.7231   18.0308   60.6263 H   0  0  0  0  0  0  0  0  0  0  0  0
   22.5467   18.5587   59.1722 H   0  0  0  0  0  0  0  0  0  0  0  0
   23.2013   16.0299   55.6022 H   0  0  0  0  0  0  0  0  0  0  0  0
   25.3777   16.9668   54.7024 H   0  0  0  0  0  0  0  0  0  0  0  0
   28.0626   19.6421   57.8061 H   0  0  0  0  0  0  0  0  0  0  0  0
   25.8644   18.4776   61.4929 H   0  0  0  0  0  0  0  0  0  0  0  0
   27.7789   21.5162   63.3758 H   0  0  0  0  0  0  0  0  0  0  0  0
   30.9963   24.3789   61.5084 H   0  0  0  0  0  0  0  0  0  0  0  0
   31.7037   23.8693   60.1276 H   0  0  0  0  0  0  0  0  0  0  0  0
   30.3227   24.7385   60.0649 H   0  0  0  0  0  0  0  0  0  0  0  0
   30.0634   21.0944   59.5465 H   0  0  0  0  0  0  0  0  0  0  0  0
   31.5500   21.7110   59.8230 H   0  0  0  0  0  0  0  0  0  0  0  0
   30.7494   20.9417   61.0205 H   0  0  0  0  0  0  0  0  0  0  0  0
   27.8642   21.3170   59.2408 H   0  0  0  0  0  0  0  0  0  0  0  0
   24.6345   18.3670   59.7313 H   0  0  0  0  0  0  0  0  0  0  0  0
  1  2  1  0  0  0  0
  2  3  1  0  0  0  0
  3  4  2  0  0  0  0
  4  5  1  0  0  0  0
  5  6  2  0  0  0  0
  6  7  1  0  0  0  0
  7  8  2  0  0  0  0
  8  9  1  0  0  0  0
  9 10  2  0  0  0  0
 10 11  1  0  0  0  0
 11 12  1  0  0  0  0
 12 13  2  0  0  0  0
 13 14  1  0  0  0  0
 14 15  2  0  0  0  0
 15 16  1  0  0  0  0
 16 17  2  0  0  0  0
 17 18  1  0  0  0  0
 18 19  2  0  0  0  0
 19 20  1  0  0  0  0
 20 21  1  0  0  0  0
 21 22  2  0  0  0  0
 21 23  1  0  0  0  0
 23 24  1  0  0  0  0
 23 25  1  0  0  0  0
 20 26  2  0  0  0  0
 15 27  1  0  0  0  0
 27 28  2  0  0  0  0
  8  3  1  0  0  0  0
 28  9  1  0  0  0  0
 28 12  1  0  0  0  0
 26 16  1  0  0  0  0
  1 29  1  0  0  0  0
  1 30  1  0  0  0  0
  1 31  1  0  0  0  0
  4 32  1  0  0  0  0
  5 33  1  0  0  0  0
  6 34  1  0  0  0  0
  7 35  1  0  0  0  0
 10 36  1  0  0  0  0
 11 37  1  0  0  0  0
 14 38  1  0  0  0  0
 17 39  1  0  0  0  0
 19 40  1  0  0  0  0
 24 41  1  0  0  0  0
 24 42  1  0  0  0  0
 24 43  1  0  0  0  0
 25 44  1  0  0  0  0
 25 45  1  0  0  0  0
 25 46  1  0  0  0  0
 26 47  1  0  0  0  0
 27 48  1  0  0  0  0
M  END
>  <docking-score>
-21.22

$$$$
2QOH_P3Y_2
foFlexX   03192112273D 1   1.00000     0.00000     0
FlexX 4.5.0 fol007
 48 51  0  0  0  0            999 V2000
   21.9740   13.1421   57.4023 C   0  0  0  0  0  0  0  0  0  0  0  0
   22.5408   14.4471   57.4331 O   0  0  0  0  0  0  0  0  0  0  0  0
   22.0791   15.4055   58.2649 C   0  0  0  0  0  0  0  0  0  0  0  0
   21.0191   15.0986   59.1115 C   0  0  0  0  0  0  0  0  0  0  0  0
   20.5206   16.0642   59.9803 C   0  0  0  0  0  0  0  0  0  0  0  0
   21.0819   17.3368   60.0022 C   0  0  0  0  0  0  0  0  0  0  0  0
   22.1426   17.6441   59.1559 C   0  0  0  0  0  0  0  0  0  0  0  0
   22.6408   16.6786   58.2868 C   0  0  0  0  0  0  0  0  0  0  0  0
   23.7461   16.9991   57.4040 C   0  0  0  0  0  0  0  0  0  0  0  0
   23.8560   16.5924   56.1072 C   0  0  0  0  0  0  0  0  0  0  0  0
   25.0286   17.0987   55.6302 N   0  0  0  0  0  0  0  0  0  0  0  0
   25.6579   17.8180   56.6181 C   0  0  0  0  0  0  0  0  0  0  0  0
   26.8085   18.5073   56.6868 N   0  0  0  0  0  0  0  0  0  0  0  0
   27.1968   19.1417   57.8047 C   0  0  0  0  0  0  0  0  0  0  0  0
   26.4230   19.1196   58.9620 C   0  0  0  0  0  0  0  0  0  0  0  0
   26.8049   19.7944   60.1911 C   0  0  0  0  0  0  0  0  0  0  0  0
   26.4177   19.3086   61.4356 C   0  0  0  0  0  0  0  0  0  0  0  0
   26.7799   19.9450   62.5596 N   0  0  0  0  0  0  0  0  0  0  0  0
   27.5222   21.0616   62.5229 C   0  0  0  0  0  0  0  0  0  0  0  0
   27.9368   21.5910   61.3055 C   0  0  0  0  0  0  0  0  0  0  0  0
   28.7394   22.7968   61.2438 C   0  0  0  0  0  0  0  0  0  0  0  0
   28.2703   23.8630   61.7282 O   0  0  0  0  0  0  0  0  0  0  0  0
   30.0470   22.8077   60.6363 N   0  0  0  0  0  0  0  0  0  0  0  0
   30.3656   21.8840   59.5419 C   0  0  0  0  0  0  0  0  0  0  0  0
   30.9973   23.8575   61.0123 C   0  0  0  0  0  0  0  0  0  0  0  0
   27.5748   20.9508   60.1251 C   0  0  0  0  0  0  0  0  0  0  0  0
   25.2268   18.4149   58.9270 C   0  0  0  0  0  0  0  0  0  0  0  0
   24.8764   17.7786   57.7431 C   0  0  0  0  0  0  0  0  0  0  0  0
   21.0064   13.2046   57.1575 H   0  0  0  0  0  0  0  0  0  0  0  0
   22.4542   12.5860   56.7239 H   0  0  0  0  0  0  0  0  0  0  0  0
   22.0631   12.7186   58.3038 H   0  0  0  0  0  0  0  0  0  0  0  0
   20.6153   14.1840   59.0957 H   0  0  0  0  0  0  0  0  0  0  0  0
   19.7586   15.8434   60.5891 H   0  0  0  0  0  0  0  0  0  0  0  0
   20.7231   18.0308   60.6263 H   0  0  0  0  0  0  0  0  0  0  0  0
   22.5467   18.5587   59.1722 H   0  0  0  0  0  0  0  0  0  0  0  0
   23.2013   16.0299   55.6022 H   0  0  0  0  0  0  0  0  0  0  0  0
   25.3777   16.9668   54.7024 H   0  0  0  0  0  0  0  0  0  0  0  0
   28.0626   19.6421   57.8061 H   0  0  0  0  0  0  0  0  0  0  0  0
   25.8644   18.4776   61.4929 H   0  0  0  0  0  0  0  0  0  0  0  0
   27.7789   21.5162   63.3758 H   0  0  0  0  0  0  0  0  0  0  0  0
   29.7458   22.0495   58.7749 H   0  0  0  0  0  0  0  0  0  0  0  0
   31.3093   22.0310   59.2457 H   0  0  0  0  0  0  0  0  0  0  0  0
   30.2589   20.9417   59.8594 H   0  0  0  0  0  0  0  0  0  0  0  0
   31.1780   23.8073   61.9945 H   0  0  0  0  0  0  0  0  0  0  0  0
   31.8519   23.7293   60.5091 H   0  0  0  0  0  0  0  0  0  0  0  0
   30.6105   24.7525   60.7899 H   0  0  0  0  0  0  0  0  0  0  0  0
   27.8642   21.3170   59.2408 H   0  0  0  0  0  0  0  0  0  0  0  0
   24.6345   18.3670   59.7313 H   0  0  0  0  0  0  0  0  0  0  0  0
  1  2  1  0  0  0  0
  2  3  1  0  0  0  0
  3  4  2  0  0  0  0
  4  5  1  0  0  0  0
  5  6  2  0  0  0  0
  6  7  1  0  0  0  0
  7  8  2  0  0  0  0
  8  9  1  0  0  0  0
  9 10  2  0  0  0  0
 10 11  1  0  0  0  0
 11 12  1  0  0  0  0
 12 13  2  0  0  0  0
 13 14  1  0  0  0  0
 14 15  2  0  0  0  0
 15 16  1  0  0  0  0
 16 17  2  0  0  0  0
 17 18  1  0  0  0  0
 18 19  2  0  0  0  0
 19 20  1  0  0  0  0
 20 21  1  0  0  0  0
 21 22  2  0  0  0  0
 21 23  1  0  0  0  0
 23 24  1  0  0  0  0
 23 25  1  0  0  0  0
 20 26  2  0  0  0  0
 15 27  1  0  0  0  0
 27 28  2  0  0  0  0
  8  3  1  0  0  0  0
 28  9  1  0  0  0  0
 28 12  1  0  0  0  0
 26 16  1  0  0  0  0
  1 29  1  0  0  0  0
  1 30  1  0  0  0  0
  1 31  1  0  0  0  0
  4 32  1  0  0  0  0
  5 33  1  0  0  0  0
  6 34  1  0  0  0  0
  7 35  1  0  0  0  0
 10 36  1  0  0  0  0
 11 37  1  0  0  0  0
 14 38  1  0  0  0  0
 17 39  1  0  0  0  0
 19 40  1  0  0  0  0
 24 41  1  0  0  0  0
 24 42  1  0  0  0  0
 24 43  1  0  0  0  0
 25 44  1  0  0  0  0
 25 45  1  0  0  0  0
 25 46  1  0  0  0  0
 26 47  1  0  0  0  0
 27 48  1  0  0  0  0
M  END
>  <docking-score>
-21.22

$$$$
2QOH_P3Y_3
foFlexX   03192112273D 1   1.00000     0.00000     0
FlexX 4.5.0 fol007
 48 51  0  0  0  0            999 V2000
   21.9740   13.1421   57.4023 C   0  0  0  0  0  0  0  0  0  0  0  0
   22.5408   14.4471   57.4331 O   0  0  0  0  0  0  0  0  0  0  0  0
   22.0791   15.4055   58.2649 C   0  0  0  0  0  0  0  0  0  0  0  0
   21.0191   15.0986   59.1115 C   0  0  0  0  0  0  0  0  0  0  0  0
   20.5206   16.0642   59.9803 C   0  0  0  0  0  0  0  0  0  0  0  0
   21.0819   17.3368   60.0022 C   0  0  0  0  0  0  0  0  0  0  0  0
   22.1426   17.6441   59.1559 C   0  0  0  0  0  0  0  0  0  0  0  0
   22.6408   16.6786   58.2868 C   0  0  0  0  0  0  0  0  0  0  0  0
   23.7461   16.9991   57.4040 C   0  0  0  0  0  0  0  0  0  0  0  0
   23.8560   16.5924   56.1072 C   0  0  0  0  0  0  0  0  0  0  0  0
   25.0286   17.0987   55.6302 N   0  0  0  0  0  0  0  0  0  0  0  0
   25.6579   17.8180   56.6181 C   0  0  0  0  0  0  0  0  0  0  0  0
   26.8085   18.5073   56.6868 N   0  0  0  0  0  0  0  0  0  0  0  0
   27.1968   19.1417   57.8047 C   0  0  0  0  0  0  0  0  0  0  0  0
   26.4230   19.1196   58.9620 C   0  0  0  0  0  0  0  0  0  0  0  0
   26.8049   19.7944   60.1911 C   0  0  0  0  0  0  0  0  0  0  0  0
   26.0007   19.7461   61.3250 C   0  0  0  0  0  0  0  0  0  0  0  0
   26.3697   20.3752   62.4508 N   0  0  0  0  0  0  0  0  0  0  0  0
   27.5173   21.0660   62.5220 C   0  0  0  0  0  0  0  0  0  0  0  0
   28.3591   21.1471   61.4180 C   0  0  0  0  0  0  0  0  0  0  0  0
   29.6037   21.8886   61.4738 C   0  0  0  0  0  0  0  0  0  0  0  0
   30.6526   21.2868   61.8330 O   0  0  0  0  0  0  0  0  0  0  0  0
   29.6676   23.2902   61.1412 N   0  0  0  0  0  0  0  0  0  0  0  0
   28.5052   24.1588   61.3572 C   0  0  0  0  0  0  0  0  0  0  0  0
   30.9525   23.8680   60.7394 C   0  0  0  0  0  0  0  0  0  0  0  0
   28.0000   20.5041   60.2382 C   0  0  0  0  0  0  0  0  0  0  0  0
   25.2268   18.4149   58.9270 C   0  0  0  0  0  0  0  0  0  0  0  0
   24.8764   17.7786   57.7431 C   0  0  0  0  0  0  0  0  0  0  0  0
   21.0064   13.2046   57.1575 H   0  0  0  0  0  0  0  0  0  0  0  0
   22.4542   12.5860   56.7239 H   0  0  0  0  0  0  0  0  0  0  0  0
   22.0631   12.7186   58.3038 H   0  0  0  0  0  0  0  0  0  0  0  0
   20.6153   14.1840   59.0957 H   0  0  0  0  0  0  0  0  0  0  0  0
   19.7586   15.8434   60.5891 H   0  0  0  0  0  0  0  0  0  0  0  0
   20.7231   18.0308   60.6263 H   0  0  0  0  0  0  0  0  0  0  0  0
   22.5467   18.5587   59.1722 H   0  0  0  0  0  0  0  0  0  0  0  0
   23.2013   16.0299   55.6022 H   0  0  0  0  0  0  0  0  0  0  0  0
   25.3777   16.9668   54.7024 H   0  0  0  0  0  0  0  0  0  0  0  0
   28.0626   19.6421   57.8061 H   0  0  0  0  0  0  0  0  0  0  0  0
   25.1398   19.2379   61.3007 H   0  0  0  0  0  0  0  0  0  0  0  0
   27.7690   21.5254   63.3739 H   0  0  0  0  0  0  0  0  0  0  0  0
   28.2623   24.1556   62.3272 H   0  0  0  0  0  0  0  0  0  0  0  0
   28.7283   25.0911   61.0724 H   0  0  0  0  0  0  0  0  0  0  0  0
   27.7326   23.8218   60.8190 H   0  0  0  0  0  0  0  0  0  0  0  0
   31.2867   23.4010   59.9207 H   0  0  0  0  0  0  0  0  0  0  0  0
   30.8335   24.8412   60.5428 H   0  0  0  0  0  0  0  0  0  0  0  0
   31.6146   23.7563   61.4805 H   0  0  0  0  0  0  0  0  0  0  0  0
   28.5932   20.5515   59.4346 H   0  0  0  0  0  0  0  0  0  0  0  0
   24.6345   18.3670   59.7313 H   0  0  0  0  0  0  0  0  0  0  0  0
  1  2  1  0  0  0  0
  2  3  1  0  0  0  0
  3  4  2  0  0  0  0
  4  5  1  0  0  0  0
  5  6  2  0  0  0  0
  6  7  1  0  0  0  0
  7  8  2  0  0  0  0
  8  9  1  0  0  0  0
  9 10  2  0  0  0  0
 10 11  1  0  0  0  0
 11 12  1  0  0  0  0
 12 13  2  0  0  0  0
 13 14  1  0  0  0  0
 14 15  2  0  0  0  0
 15 16  1  0  0  0  0
 16 17  2  0  0  0  0
 17 18  1  0  0  0  0
 18 19  2  0  0  0  0
 19 20  1  0  0  0  0
 20 21  1  0  0  0  0
 21 22  2  0  0  0  0
 21 23  1  0  0  0  0
 23 24  1  0  0  0  0
 23 25  1  0  0  0  0
 20 26  2  0  0  0  0
 15 27  1  0  0  0  0
 27 28  2  0  0  0  0
  8  3  1  0  0  0  0
 28  9  1  0  0  0  0
 28 12  1  0  0  0  0
 26 16  1  0  0  0  0
  1 29  1  0  0  0  0
  1 30  1  0  0  0  0
  1 31  1  0  0  0  0
  4 32  1  0  0  0  0
  5 33  1  0  0  0  0
  6 34  1  0  0  0  0
  7 35  1  0  0  0  0
 10 36  1  0  0  0  0
 11 37  1  0  0  0  0
 14 38  1  0  0  0  0
 17 39  1  0  0  0  0
 19 40  1  0  0  0  0
 24 41  1  0  0  0  0
 24 42  1  0  0  0  0
 24 43  1  0  0  0  0
 25 44  1  0  0  0  0
 25 45  1  0  0  0  0
 25 46  1  0  0  0  0
 26 47  1  0  0  0  0
 27 48  1  0  0  0  0
M  END
>  <docking-score>
-20.52

$$$$
3KF4_B90_1
foFlexX   03192112273D 1   1.00000     0.00000     0
FlexX 4.5.0 fol007
 54 58  0  0  0  0            999 V2000
   21.4544   12.0084   56.3044 C   0  0  0  0  0  0  0  0  0  0  0  0
   20.1697   12.7757   56.0363 C   0  0  0  0  0  0  0  0  0  0  0  0
   19.0195   12.0709   55.7006 C   0  0  0  0  0  0  0  0  0  0  0  0
   17.8331   12.7537   55.4509 C   0  0  0  0  0  0  0  0  0  0  0  0
   17.7734   14.1410   55.5335 C   0  0  0  0  0  0  0  0  0  0  0  0
   16.7523   15.0344   55.3438 N   0  0  0  0  0  0  0  0  0  0  0  0
   17.2066   16.2548   55.5335 N   0  0  0  0  0  0  0  0  0  0  0  0
   18.4844   16.1904   55.8471 C   0  0  0  0  0  0  0  0  0  0  0  0
   18.9106   14.8334   55.8613 C   0  0  0  0  0  0  0  0  0  0  0  0
   20.1058   14.1644   56.1170 C   0  0  0  0  0  0  0  0  0  0  0  0
   21.3070   14.8980   56.4683 C   0  0  0  0  0  0  0  0  0  0  0  0
   21.8493   15.8094   55.6516 C   0  0  0  0  0  0  0  0  0  0  0  0
   23.0387   16.5439   55.9862 N   0  0  0  0  0  0  0  0  0  0  0  0
   23.9449   17.0096   55.0795 C   0  0  0  0  0  0  0  0  0  0  0  0
   24.8962   17.6262   55.7458 N   0  0  0  0  0  0  0  0  0  0  0  0
   24.6063   17.5610   57.0791 C   0  0  0  0  0  0  0  0  0  0  0  0
   25.2171   18.0131   58.2434 C   0  0  0  0  0  0  0  0  0  0  0  0
   26.4235   18.7199   58.1698 N   0  0  0  0  0  0  0  0  0  0  0  0
   26.9201   19.5702   59.2170 C   0  0  0  0  0  0  0  0  0  0  0  0
   26.1779   19.7179   60.3843 C   0  0  0  0  0  0  0  0  0  0  0  0
   26.6458   20.5366   61.4068 C   0  0  0  0  0  0  0  0  0  0  0  0
   27.8577   21.1999   61.2440 C   0  0  0  0  0  0  0  0  0  0  0  0
   28.4629   22.2400   62.5283 P   0  0  0  0  0  0  0  0  0  0  0  0
   29.4937   21.2636   63.6580 C   0  0  0  0  0  0  0  0  0  0  0  0
   29.4581   23.5760   61.8090 C   0  0  0  0  0  0  0  0  0  0  0  0
   27.3132   22.8433   63.3036 O   0  0  0  0  0  0  0  0  0  0  0  0
   28.6021   21.0542   60.0781 C   0  0  0  0  0  0  0  0  0  0  0  0
   28.1318   20.2347   59.0571 C   0  0  0  0  0  0  0  0  0  0  0  0
   24.6661   17.7817   59.4454 N   0  0  0  0  0  0  0  0  0  0  0  0
   23.5132   17.1099   59.5708 C   0  0  0  0  0  0  0  0  0  0  0  0
   22.9013   16.6608   58.4658 N   0  0  0  0  0  0  0  0  0  0  0  0
   23.4277   16.8792   57.2519 C   0  0  0  0  0  0  0  0  0  0  0  0
   22.1855   12.6516   56.5322 H   0  0  0  0  0  0  0  0  0  0  0  0
   21.3136   11.3794   57.0690 H   0  0  0  0  0  0  0  0  0  0  0  0
   21.7092   11.4894   55.4885 H   0  0  0  0  0  0  0  0  0  0  0  0
   19.0447   11.0731   55.6385 H   0  0  0  0  0  0  0  0  0  0  0  0
   17.0106   12.2391   55.2084 H   0  0  0  0  0  0  0  0  0  0  0  0
   15.8119   14.7971   55.1001 H   0  0  0  0  0  0  0  0  0  0  0  0
   19.0678   16.9779   56.0456 H   0  0  0  0  0  0  0  0  0  0  0  0
   21.7441   14.7170   57.3493 H   0  0  0  0  0  0  0  0  0  0  0  0
   21.4084   15.9868   54.7718 H   0  0  0  0  0  0  0  0  0  0  0  0
   23.8949   16.9015   54.0866 H   0  0  0  0  0  0  0  0  0  0  0  0
   26.9725   18.6276   57.3390 H   0  0  0  0  0  0  0  0  0  0  0  0
   25.3081   19.2356   60.4883 H   0  0  0  0  0  0  0  0  0  0  0  0
   26.1175   20.6471   62.2487 H   0  0  0  0  0  0  0  0  0  0  0  0
   28.9435   20.5347   64.0654 H   0  0  0  0  0  0  0  0  0  0  0  0
   30.2561   20.8620   63.1506 H   0  0  0  0  0  0  0  0  0  0  0  0
   29.8497   21.8561   64.3806 H   0  0  0  0  0  0  0  0  0  0  0  0
   29.8137   24.1578   62.5406 H   0  0  0  0  0  0  0  0  0  0  0  0
   30.2207   23.1838   61.2946 H   0  0  0  0  0  0  0  0  0  0  0  0
   28.8883   24.1228   61.1955 H   0  0  0  0  0  0  0  0  0  0  0  0
   29.4718   21.5367   59.9743 H   0  0  0  0  0  0  0  0  0  0  0  0
   28.6603   20.1241   58.2154 H   0  0  0  0  0  0  0  0  0  0  0  0
   23.1160   16.9464   60.4738 H   0  0  0  0  0  0  0  0  0  0  0  0
  1  2  1  0  0  0  0
  2  3  2  0  0  0  0
  3  4  1  0  0  0  0
  4  5  2  0  0  0  0
  5  6  1  0  0  0  0
  6  7  1  0  0  0  0
  7  8  2  0  0  0  0
  8  9  1  0  0  0  0
  9 10  2  0  0  0  0
 10 11  1  0  0  0  0
 11 12  2  0  0  0  0
 12 13  1  0  0  0  0
 13 14  1  0  0  0  0
 14 15  2  0  0  0  0
 15 16  1  0  0  0  0
 16 17  2  0  0  0  0
 17 18  1  0  0  0  0
 18 19  1  0  0  0  0
 19 20  2  0  0  0  0
 20 21  1  0  0  0  0
 21 22  2  0  0  0  0
 22 23  1  0  0  0  0
 23 24  1  0  0  0  0
 23 25  1  0  0  0  0
 23 26  2  0  0  0  0
 22 27  1  0  0  0  0
 27 28  2  0  0  0  0
 17 29  1  0  0  0  0
 29 30  2  0  0  0  0
 30 31  1  0  0  0  0
 31 32  2  0  0  0  0
 10  2  1  0  0  0  0
 32 13  1  0  0  0  0
  9  5  1  0  0  0  0
 32 16  1  0  0  0  0
 28 19  1  0  0  0  0
  1 33  1  0  0  0  0
  1 34  1  0  0  0  0
  1 35  1  0  0  0  0
  3 36  1  0  0  0  0
  4 37  1  0  0  0  0
  6 38  1  0  0  0  0
  8 39  1  0  0  0  0
 11 40  1  0  0  0  0
 12 41  1  0  0  0  0
 14 42  1  0  0  0  0
 18 43  1  0  0  0  0
 20 44  1  0  0  0  0
 21 45  1  0  0  0  0
 24 46  1  0  0  0  0
 24 47  1  0  0  0  0
 24 48  1  0  0  0  0
 25 49  1  0  0  0  0
 25 50  1  0  0  0  0
 25 51  1  0  0  0  0
 27 52  1  0  0  0  0
 28 53  1  0  0  0  0
 30 54  1  0  0  0  0
M  END
>  <docking-score>
-29.37

$$$$
3KF4_B90_2
foFlexX   03192112273D 1   1.00000     0.00000     0
FlexX 4.5.0 fol007
 54 58  0  0  0  0            999 V2000
   21.0142   11.7553   56.6577 C   0  0  0  0  0  0  0  0  0  0  0  0
   19.8198   12.5719   56.1911 C   0  0  0  0  0  0  0  0  0  0  0  0
   18.6479   11.9131   55.8373 C   0  0  0  0  0  0  0  0  0  0  0  0
   17.5430   12.6414   55.4072 C   0  0  0  0  0  0  0  0  0  0  0  0
   17.5869   14.0294   55.3254 C   0  0  0  0  0  0  0  0  0  0  0  0
   16.6582   14.9620   54.9453 N   0  0  0  0  0  0  0  0  0  0  0  0
   17.1911   16.1619   55.0342 N   0  0  0  0  0  0  0  0  0  0  0  0
   18.4307   16.0474   55.4650 C   0  0  0  0  0  0  0  0  0  0  0  0
   18.7456   14.6758   55.6716 C   0  0  0  0  0  0  0  0  0  0  0  0
   19.8598   13.9612   56.1069 C   0  0  0  0  0  0  0  0  0  0  0  0
   21.0834   14.6469   56.4773 C   0  0  0  0  0  0  0  0  0  0  0  0
   21.7597   15.4137   55.6133 C   0  0  0  0  0  0  0  0  0  0  0  0
   22.9730   16.0989   55.9660 N   0  0  0  0  0  0  0  0  0  0  0  0
   24.1781   15.9080   55.3567 C   0  0  0  0  0  0  0  0  0  0  0  0
   25.0513   16.6983   55.9416 N   0  0  0  0  0  0  0  0  0  0  0  0
   24.4135   17.3993   56.9253 C   0  0  0  0  0  0  0  0  0  0  0  0
   24.7951   18.3559   57.8592 C   0  0  0  0  0  0  0  0  0  0  0  0
   26.1243   18.7935   57.9071 N   0  0  0  0  0  0  0  0  0  0  0  0
   26.7163   19.4368   59.0482 C   0  0  0  0  0  0  0  0  0  0  0  0
   25.9453   19.6498   60.1865 C   0  0  0  0  0  0  0  0  0  0  0  0
   26.5044   20.2702   61.2988 C   0  0  0  0  0  0  0  0  0  0  0  0
   27.8358   20.6710   61.2543 C   0  0  0  0  0  0  0  0  0  0  0  0
   28.5576   21.4580   62.6534 P   0  0  0  0  0  0  0  0  0  0  0  0
   29.2858   20.2019   63.7414 C   0  0  0  0  0  0  0  0  0  0  0  0
   29.8541   22.6026   62.1041 C   0  0  0  0  0  0  0  0  0  0  0  0
   27.5097   22.2314   63.4219 O   0  0  0  0  0  0  0  0  0  0  0  0
   28.6092   20.4594   60.1178 C   0  0  0  0  0  0  0  0  0  0  0  0
   28.0475   19.8386   59.0068 C   0  0  0  0  0  0  0  0  0  0  0  0
   23.9048   18.8707   58.7220 N   0  0  0  0  0  0  0  0  0  0  0  0
   22.6211   18.4856   58.7182 C   0  0  0  0  0  0  0  0  0  0  0  0
   22.2236   17.5639   57.8297 N   0  0  0  0  0  0  0  0  0  0  0  0
   23.0907   17.0341   56.9546 C   0  0  0  0  0  0  0  0  0  0  0  0
   21.7734   12.3690   56.8745 H   0  0  0  0  0  0  0  0  0  0  0  0
   20.7634   11.2342   57.4736 H   0  0  0  0  0  0  0  0  0  0  0  0
   21.2915   11.1255   55.9321 H   0  0  0  0  0  0  0  0  0  0  0  0
   18.5989   10.9158   55.8919 H   0  0  0  0  0  0  0  0  0  0  0  0
   16.7044   12.1596   55.1530 H   0  0  0  0  0  0  0  0  0  0  0  0
   15.7245   14.7628   54.6479 H   0  0  0  0  0  0  0  0  0  0  0  0
   19.0568   16.8108   55.6233 H   0  0  0  0  0  0  0  0  0  0  0  0
   21.4331   14.5433   57.4085 H   0  0  0  0  0  0  0  0  0  0  0  0
   21.4059   15.5140   54.6834 H   0  0  0  0  0  0  0  0  0  0  0  0
   24.3643   15.2800   54.6011 H   0  0  0  0  0  0  0  0  0  0  0  0
   26.6959   18.6500   57.0992 H   0  0  0  0  0  0  0  0  0  0  0  0
   24.9893   19.3570   60.2050 H   0  0  0  0  0  0  0  0  0  0  0  0
   25.9560   20.4262   62.1204 H   0  0  0  0  0  0  0  0  0  0  0  0
   28.5704   19.5778   64.0556 H   0  0  0  0  0  0  0  0  0  0  0  0
   29.9799   19.6870   63.2383 H   0  0  0  0  0  0  0  0  0  0  0  0
   29.7085   20.6485   64.5300 H   0  0  0  0  0  0  0  0  0  0  0  0
   30.2736   23.0381   62.9005 H   0  0  0  0  0  0  0  0  0  0  0  0
   30.5509   22.0974   61.5949 H   0  0  0  0  0  0  0  0  0  0  0  0
   29.4524   23.3030   61.5141 H   0  0  0  0  0  0  0  0  0  0  0  0
   29.5651   20.7524   60.0994 H   0  0  0  0  0  0  0  0  0  0  0  0
   28.5961   19.6824   58.1854 H   0  0  0  0  0  0  0  0  0  0  0  0
   21.9705   18.8794   59.3675 H   0  0  0  0  0  0  0  0  0  0  0  0
  1  2  1  0  0  0  0
  2  3  2  0  0  0  0
  3  4  1  0  0  0  0
  4  5  2  0  0  0  0
  5  6  1  0  0  0  0
  6  7  1  0  0  0  0
  7  8  2  0  0  0  0
  8  9  1  0  0  0  0
  9 10  2  0  0  0  0
 10 11  1  0  0  0  0
 11 12  2  0  0  0  0
 12 13  1  0  0  0  0
 13 14  1  0  0  0  0
 14 15  2  0  0  0  0
 15 16  1  0  0  0  0
 16 17  2  0  0  0  0
 17 18  1  0  0  0  0
 18 19  1  0  0  0  0
 19 20  2  0  0  0  0
 20 21  1  0  0  0  0
 21 22  2  0  0  0  0
 22 23  1  0  0  0  0
 23 24  1  0  0  0  0
 23 25  1  0  0  0  0
 23 26  2  0  0  0  0
 22 27  1  0  0  0  0
 27 28  2  0  0  0  0
 17 29  1  0  0  0  0
 29 30  2  0  0  0  0
 30 31  1  0  0  0  0
 31 32  2  0  0  0  0
 10  2  1  0  0  0  0
 32 13  1  0  0  0  0
  9  5  1  0  0  0  0
 32 16  1  0  0  0  0
 28 19  1  0  0  0  0
  1 33  1  0  0  0  0
  1 34  1  0  0  0  0
  1 35  1  0  0  0  0
  3 36  1  0  0  0  0
  4 37  1  0  0  0  0
  6 38  1  0  0  0  0
  8 39  1  0  0  0  0
 11 40  1  0  0  0  0
 12 41  1  0  0  0  0
 14 42  1  0  0  0  0
 18 43  1  0  0  0  0
 20 44  1  0  0  0  0
 21 45  1  0  0  0  0
 24 46  1  0  0  0  0
 24 47  1  0  0  0  0
 24 48  1  0  0  0  0
 25 49  1  0  0  0  0
 25 50  1  0  0  0  0
 25 51  1  0  0  0  0
 27 52  1  0  0  0  0
 28 53  1  0  0  0  0
 30 54  1  0  0  0  0
M  END
>  <docking-score>
-25.84

$$$$
3KF4_B90_3
foFlexX   03192112273D 1   1.00000     0.00000     0
FlexX 4.5.0 fol007
 54 58  0  0  0  0            999 V2000
   21.4544   12.0084   56.3044 C   0  0  0  0  0  0  0  0  0  0  0  0
   20.1697   12.7757   56.0363 C   0  0  0  0  0  0  0  0  0  0  0  0
   19.0195   12.0709   55.7006 C   0  0  0  0  0  0  0  0  0  0  0  0
   17.8331   12.7537   55.4509 C   0  0  0  0  0  0  0  0  0  0  0  0
   17.7734   14.1410   55.5335 C   0  0  0  0  0  0  0  0  0  0  0  0
   16.7523   15.0344   55.3438 N   0  0  0  0  0  0  0  0  0  0  0  0
   17.2066   16.2548   55.5335 N   0  0  0  0  0  0  0  0  0  0  0  0
   18.4844   16.1904   55.8471 C   0  0  0  0  0  0  0  0  0  0  0  0
   18.9106   14.8334   55.8613 C   0  0  0  0  0  0  0  0  0  0  0  0
   20.1058   14.1644   56.1170 C   0  0  0  0  0  0  0  0  0  0  0  0
   21.3070   14.8980   56.4683 C   0  0  0  0  0  0  0  0  0  0  0  0
   21.8493   15.8094   55.6516 C   0  0  0  0  0  0  0  0  0  0  0  0
   23.0387   16.5439   55.9862 N   0  0  0  0  0  0  0  0  0  0  0  0
   23.9449   17.0096   55.0795 C   0  0  0  0  0  0  0  0  0  0  0  0
   24.8962   17.6262   55.7458 N   0  0  0  0  0  0  0  0  0  0  0  0
   24.6063   17.5610   57.0791 C   0  0  0  0  0  0  0  0  0  0  0  0
   25.2171   18.0131   58.2434 C   0  0  0  0  0  0  0  0  0  0  0  0
   26.4235   18.7199   58.1698 N   0  0  0  0  0  0  0  0  0  0  0  0
   26.9201   19.5702   59.2170 C   0  0  0  0  0  0  0  0  0  0  0  0
   26.1779   19.7179   60.3843 C   0  0  0  0  0  0  0  0  0  0  0  0
   26.6458   20.5366   61.4068 C   0  0  0  0  0  0  0  0  0  0  0  0
   27.8577   21.1999   61.2440 C   0  0  0  0  0  0  0  0  0  0  0  0
   28.4629   22.2400   62.5283 P   0  0  0  0  0  0  0  0  0  0  0  0
   28.6465   23.9310   61.8972 C   0  0  0  0  0  0  0  0  0  0  0  0
   27.2905   22.2389   63.9133 C   0  0  0  0  0  0  0  0  0  0  0  0
   29.8056   21.7457   63.0179 O   0  0  0  0  0  0  0  0  0  0  0  0
   28.6021   21.0542   60.0781 C   0  0  0  0  0  0  0  0  0  0  0  0
   28.1318   20.2347   59.0571 C   0  0  0  0  0  0  0  0  0  0  0  0
   24.6661   17.7817   59.4454 N   0  0  0  0  0  0  0  0  0  0  0  0
   23.5132   17.1099   59.5708 C   0  0  0  0  0  0  0  0  0  0  0  0
   22.9013   16.6608   58.4658 N   0  0  0  0  0  0  0  0  0  0  0  0
   23.4277   16.8792   57.2519 C   0  0  0  0  0  0  0  0  0  0  0  0
   22.1855   12.6516   56.5322 H   0  0  0  0  0  0  0  0  0  0  0  0
   21.3136   11.3794   57.0690 H   0  0  0  0  0  0  0  0  0  0  0  0
   21.7092   11.4894   55.4885 H   0  0  0  0  0  0  0  0  0  0  0  0
   19.0447   11.0731   55.6385 H   0  0  0  0  0  0  0  0  0  0  0  0
   17.0106   12.2391   55.2084 H   0  0  0  0  0  0  0  0  0  0  0  0
   15.8119   14.7971   55.1001 H   0  0  0  0  0  0  0  0  0  0  0  0
   19.0678   16.9779   56.0456 H   0  0  0  0  0  0  0  0  0  0  0  0
   21.7441   14.7170   57.3493 H   0  0  0  0  0  0  0  0  0  0  0  0
   21.4084   15.9868   54.7718 H   0  0  0  0  0  0  0  0  0  0  0  0
   23.8949   16.9015   54.0866 H   0  0  0  0  0  0  0  0  0  0  0  0
   26.9725   18.6276   57.3390 H   0  0  0  0  0  0  0  0  0  0  0  0
   25.3081   19.2356   60.4883 H   0  0  0  0  0  0  0  0  0  0  0  0
   26.1175   20.6471   62.2487 H   0  0  0  0  0  0  0  0  0  0  0  0
   29.3022   23.9357   61.1422 H   0  0  0  0  0  0  0  0  0  0  0  0
   27.7612   24.2633   61.5718 H   0  0  0  0  0  0  0  0  0  0  0  0
   28.9772   24.5261   62.6296 H   0  0  0  0  0  0  0  0  0  0  0  0
   27.6281   22.8416   64.6363 H   0  0  0  0  0  0  0  0  0  0  0  0
   26.3999   22.5649   63.5964 H   0  0  0  0  0  0  0  0  0  0  0  0
   27.1975   21.3095   64.2706 H   0  0  0  0  0  0  0  0  0  0  0  0
   29.4718   21.5367   59.9743 H   0  0  0  0  0  0  0  0  0  0  0  0
   28.6603   20.1241   58.2154 H   0  0  0  0  0  0  0  0  0  0  0  0
   23.1160   16.9464   60.4738 H   0  0  0  0  0  0  0  0  0  0  0  0
  1  2  1  0  0  0  0
  2  3  2  0  0  0  0
  3  4  1  0  0  0  0
  4  5  2  0  0  0  0
  5  6  1  0  0  0  0
  6  7  1  0  0  0  0
  7  8  2  0  0  0  0
  8  9  1  0  0  0  0
  9 10  2  0  0  0  0
 10 11  1  0  0  0  0
 11 12  2  0  0  0  0
 12 13  1  0  0  0  0
 13 14  1  0  0  0  0
 14 15  2  0  0  0  0
 15 16  1  0  0  0  0
 16 17  2  0  0  0  0
 17 18  1  0  0  0  0
 18 19  1  0  0  0  0
 19 20  2  0  0  0  0
 20 21  1  0  0  0  0
 21 22  2  0  0  0  0
 22 23  1  0  0  0  0
 23 24  1  0  0  0  0
 23 25  1  0  0  0  0
 23 26  2  0  0  0  0
 22 27  1  0  0  0  0
 27 28  2  0  0  0  0
 17 29  1  0  0  0  0
 29 30  2  0  0  0  0
 30 31  1  0  0  0  0
 31 32  2  0  0  0  0
 10  2  1  0  0  0  0
 32 13  1  0  0  0  0
  9  5  1  0  0  0  0
 32 16  1  0  0  0  0
 28 19  1  0  0  0  0
  1 33  1  0  0  0  0
  1 34  1  0  0  0  0
  1 35  1  0  0  0  0
  3 36  1  0  0  0  0
  4 37  1  0  0  0  0
  6 38  1  0  0  0  0
  8 39  1  0  0  0  0
 11 40  1  0  0  0  0
 12 41  1  0  0  0  0
 14 42  1  0  0  0  0
 18 43  1  0  0  0  0
 20 44  1  0  0  0  0
 21 45  1  0  0  0  0
 24 46  1  0  0  0  0
 24 47  1  0  0  0  0
 24 48  1  0  0  0  0
 25 49  1  0  0  0  0
 25 50  1  0  0  0  0
 25 51  1  0  0  0  0
 27 52  1  0  0  0  0
 28 53  1  0  0  0  0
 30 54  1  0  0  0  0
M  END
>  <docking-score>
-24.76

$$$$
3MS9_MS9_1
foFlexX   03192112273D 1   1.00000     0.00000     0
FlexX 4.5.0 fol007
 20 20  0  0  0  0            999 V2000
   27.5878   20.2993   59.0748 C   0  0  0  0  0  0  0  0  0  0  0  0
   26.2808   19.8102   58.7994 O   0  0  0  0  0  0  0  0  0  0  0  0
   25.9568   19.1505   57.6090 C   0  0  0  0  0  0  0  0  0  0  0  0
   26.6889   19.2887   56.5909 O   0  0  0  0  0  0  0  0  0  0  0  0
   24.8107   18.2626   57.5746 C   0  0  0  0  0  0  0  0  0  0  0  0
   24.0295   18.1394   58.7193 C   0  0  0  0  0  0  0  0  0  0  0  0
   22.9230   17.2962   58.7191 C   0  0  0  0  0  0  0  0  0  0  0  0
   22.6079   16.5811   57.5680 C   0  0  0  0  0  0  0  0  0  0  0  0
   21.1932   15.5003   57.5620 Cl  0  0  0  0  0  0  0  0  0  0  0  0
   23.3848   16.6995   56.4200 C   0  0  0  0  0  0  0  0  0  0  0  0
   24.4901   17.5446   56.4263 C   0  0  0  0  0  0  0  0  0  0  0  0
   25.2602   17.6512   55.2616 N   0  0  0  0  0  0  0  0  0  0  0  0
   27.8468   20.9686   58.3785 H   0  0  0  0  0  0  0  0  0  0  0  0
   27.5981   20.7341   59.9753 H   0  0  0  0  0  0  0  0  0  0  0  0
   28.2373   19.5390   59.0644 H   0  0  0  0  0  0  0  0  0  0  0  0
   24.2634   18.6569   59.5424 H   0  0  0  0  0  0  0  0  0  0  0  0
   22.3586   17.2049   59.5395 H   0  0  0  0  0  0  0  0  0  0  0  0
   23.1509   16.1815   55.5972 H   0  0  0  0  0  0  0  0  0  0  0  0
   25.3310   16.8742   54.6361 H   0  0  0  0  0  0  0  0  0  0  0  0
   25.7393   18.5044   55.0554 H   0  0  0  0  0  0  0  0  0  0  0  0
  1  2  1  0  0  0  0
  2  3  1  0  0  0  0
  3  4  2  0  0  0  0
  3  5  1  0  0  0  0
  5  6  2  0  0  0  0
  6  7  1  0  0  0  0
  7  8  2  0  0  0  0
  8  9  1  0  0  0  0
  8 10  1  0  0  0  0
 10 11  2  0  0  0  0
 11 12  1  0  0  0  0
 11  5  1  0  0  0  0
  1 13  1  0  0  0  0
  1 14  1  0  0  0  0
  1 15  1  0  0  0  0
  6 16  1  0  0  0  0
  7 17  1  0  0  0  0
 10 18  1  0  0  0  0
 12 19  1  0  0  0  0
 12 20  1  0  0  0  0
M  END
>  <docking-score>
-16.30

$$$$
3MS9_MS9_2
foFlexX   03192112273D 1   1.00000     0.00000     0
FlexX 4.5.0 fol007
 20 20  0  0  0  0            999 V2000
   27.3883   20.7395   58.9310 C   0  0  0  0  0  0  0  0  0  0  0  0
   26.1337   20.1231   58.6673 O   0  0  0  0  0  0  0  0  0  0  0  0
   25.9219   19.2814   57.5700 C   0  0  0  0  0  0  0  0  0  0  0  0
   26.7004   19.3282   56.5785 O   0  0  0  0  0  0  0  0  0  0  0  0
   24.8399   18.3166   57.6095 C   0  0  0  0  0  0  0  0  0  0  0  0
   24.0042   18.2986   58.7219 C   0  0  0  0  0  0  0  0  0  0  0  0
   22.9568   17.3857   58.7905 C   0  0  0  0  0  0  0  0  0  0  0  0
   22.7552   16.4953   57.7406 C   0  0  0  0  0  0  0  0  0  0  0  0
   21.4165   15.3246   57.8233 Cl  0  0  0  0  0  0  0  0  0  0  0  0
   23.5871   16.5077   56.6256 C   0  0  0  0  0  0  0  0  0  0  0  0
   24.6328   17.4233   56.5625 C   0  0  0  0  0  0  0  0  0  0  0  0
   25.4596   17.4213   55.4324 N   0  0  0  0  0  0  0  0  0  0  0  0
   27.6425   21.3217   58.1587 H   0  0  0  0  0  0  0  0  0  0  0  0
   27.3188   21.2958   59.7591 H   0  0  0  0  0  0  0  0  0  0  0  0
   28.0854   20.0344   59.0607 H   0  0  0  0  0  0  0  0  0  0  0  0
   24.1566   18.9420   59.4721 H   0  0  0  0  0  0  0  0  0  0  0  0
   22.3536   17.3695   59.5880 H   0  0  0  0  0  0  0  0  0  0  0  0
   23.4347   15.8640   55.8757 H   0  0  0  0  0  0  0  0  0  0  0  0
   26.2171   18.0706   55.3659 H   0  0  0  0  0  0  0  0  0  0  0  0
   25.2924   16.7704   54.6918 H   0  0  0  0  0  0  0  0  0  0  0  0
  1  2  1  0  0  0  0
  2  3  1  0  0  0  0
  3  4  2  0  0  0  0
  3  5  1  0  0  0  0
  5  6  2  0  0  0  0
  6  7  1  0  0  0  0
  7  8  2  0  0  0  0
  8  9  1  0  0  0  0
  8 10  1  0  0  0  0
 10 11  2  0  0  0  0
 11 12  1  0  0  0  0
 11  5  1  0  0  0  0
  1 13  1  0  0  0  0
  1 14  1  0  0  0  0
  1 15  1  0  0  0  0
  6 16  1  0  0  0  0
  7 17  1  0  0  0  0
 10 18  1  0  0  0  0
 12 19  1  0  0  0  0
 12 20  1  0  0  0  0
M  END
>  <docking-score>
-16.06

$$$$
3MS9_MS9_3
foFlexX   03192112273D 1   1.00000     0.00000     0
FlexX 4.5.0 fol007
 20 20  0  0  0  0            999 V2000
   26.7811   19.8580   59.0836 C   0  0  0  0  0  0  0  0  0  0  0  0
   25.6294   19.0673   58.8156 O   0  0  0  0  0  0  0  0  0  0  0  0
   25.3697   18.5139   57.5573 C   0  0  0  0  0  0  0  0  0  0  0  0
   26.1726   18.7082   56.6039 O   0  0  0  0  0  0  0  0  0  0  0  0
   24.2054   17.6684   57.3764 C   0  0  0  0  0  0  0  0  0  0  0  0
   23.3452   17.4805   58.4538 C   0  0  0  0  0  0  0  0  0  0  0  0
   22.2192   16.6757   58.3130 C   0  0  0  0  0  0  0  0  0  0  0  0
   21.9643   16.0636   57.0899 C   0  0  0  0  0  0  0  0  0  0  0  0
   20.5251   15.0323   56.9041 Cl  0  0  0  0  0  0  0  0  0  0  0  0
   22.8203   16.2470   56.0086 C   0  0  0  0  0  0  0  0  0  0  0  0
   23.9446   17.0533   56.1554 C   0  0  0  0  0  0  0  0  0  0  0  0
   24.7945   17.2265   55.0562 N   0  0  0  0  0  0  0  0  0  0  0  0
   26.7790   20.6622   58.4892 H   0  0  0  0  0  0  0  0  0  0  0  0
   26.7695   20.1504   60.0399 H   0  0  0  0  0  0  0  0  0  0  0  0
   27.6043   19.3175   58.9102 H   0  0  0  0  0  0  0  0  0  0  0  0
   23.5363   17.9241   59.3294 H   0  0  0  0  0  0  0  0  0  0  0  0
   21.5982   16.5382   59.0846 H   0  0  0  0  0  0  0  0  0  0  0  0
   22.6291   15.8030   55.1332 H   0  0  0  0  0  0  0  0  0  0  0  0
   24.8871   16.4992   54.3762 H   0  0  0  0  0  0  0  0  0  0  0  0
   25.3090   18.0776   54.9512 H   0  0  0  0  0  0  0  0  0  0  0  0
  1  2  1  0  0  0  0
  2  3  1  0  0  0  0
  3  4  2  0  0  0  0
  3  5  1  0  0  0  0
  5  6  2  0  0  0  0
  6  7  1  0  0  0  0
  7  8  2  0  0  0  0
  8  9  1  0  0  0  0
  8 10  1  0  0  0  0
 10 11  2  0  0  0  0
 11 12  1  0  0  0  0
 11  5  1  0  0  0  0
  1 13  1  0  0  0  0
  1 14  1  0  0  0  0
  1 15  1  0  0  0  0
  6 16  1  0  0  0  0
  7 17  1  0  0  0  0
 10 18  1  0  0  0  0
 12 19  1  0  0  0  0
 12 20  1  0  0  0  0
M  END
>  <docking-score>
-15.75

$$$$
3K5V_STJ_1
foFlexX   03192112273D 1   1.00000     0.00000     0
FlexX 4.5.0 fol007
 40 42  0  0  0  0            999 V2000
   27.7040   21.2743   58.8729 N   0  0  0  0  0  0  0  0  0  0  0  0
   26.6015   20.3799   59.0462 C   0  0  0  0  0  0  0  0  0  0  0  0
   25.9191   20.4539   60.1040 O   0  0  0  0  0  0  0  0  0  0  0  0
   26.2384   19.3858   58.0060 C   0  0  0  0  0  0  0  0  0  0  0  0
   26.9888   19.3009   56.8378 C   0  0  0  0  0  0  0  0  0  0  0  0
   26.6335   18.3628   55.8738 C   0  0  0  0  0  0  0  0  0  0  0  0
   25.5458   17.5171   56.0644 C   0  0  0  0  0  0  0  0  0  0  0  0
   24.8095   17.6190   57.2406 C   0  0  0  0  0  0  0  0  0  0  0  0
   23.6734   16.7418   57.4501 C   0  0  0  0  0  0  0  0  0  0  0  0
   22.9529   16.2923   56.3484 C   0  0  0  0  0  0  0  0  0  0  0  0
   21.8651   15.4517   56.5606 C   0  0  0  0  0  0  0  0  0  0  0  0
   21.1320   14.9936   55.4584 N   0  0  0  0  0  0  0  0  0  0  0  0
   19.7306   15.2483   55.2622 C   0  0  0  0  0  0  0  0  0  0  0  0
   19.2776   16.5604   55.1667 C   0  0  0  0  0  0  0  0  0  0  0  0
   17.9232   16.8166   54.9766 C   0  0  0  0  0  0  0  0  0  0  0  0
   17.0366   15.7487   54.8849 C   0  0  0  0  0  0  0  0  0  0  0  0
   15.7205   15.9838   54.7013 O   0  0  0  0  0  0  0  0  0  0  0  0
   14.9490   15.5285   53.5918 C   0  0  0  0  0  0  0  0  0  0  0  0
   14.9717   14.1467   53.5305 F   0  0  0  0  0  0  0  0  0  0  0  0
   15.4450   16.0614   52.4154 F   0  0  0  0  0  0  0  0  0  0  0  0
   13.6421   15.9457   53.7535 F   0  0  0  0  0  0  0  0  0  0  0  0
   17.4807   14.4332   54.9799 C   0  0  0  0  0  0  0  0  0  0  0  0
   18.8363   14.1864   55.1696 C   0  0  0  0  0  0  0  0  0  0  0  0
   21.5451   15.1008   57.8155 N   0  0  0  0  0  0  0  0  0  0  0  0
   22.2496   15.5422   58.8685 C   0  0  0  0  0  0  0  0  0  0  0  0
   23.3009   16.3537   58.6790 N   0  0  0  0  0  0  0  0  0  0  0  0
   25.1470   18.5499   58.2178 C   0  0  0  0  0  0  0  0  0  0  0  0
   28.2072   21.6082   59.6700 H   0  0  0  0  0  0  0  0  0  0  0  0
   27.9718   21.5659   57.9546 H   0  0  0  0  0  0  0  0  0  0  0  0
   27.7722   19.9054   56.6930 H   0  0  0  0  0  0  0  0  0  0  0  0
   27.1681   18.2955   55.0314 H   0  0  0  0  0  0  0  0  0  0  0  0
   25.2967   16.8458   55.3663 H   0  0  0  0  0  0  0  0  0  0  0  0
   23.2117   16.5679   55.4226 H   0  0  0  0  0  0  0  0  0  0  0  0
   21.6128   14.4563   54.7655 H   0  0  0  0  0  0  0  0  0  0  0  0
   19.9253   17.3192   55.2347 H   0  0  0  0  0  0  0  0  0  0  0  0
   17.5911   17.7572   54.9067 H   0  0  0  0  0  0  0  0  0  0  0  0
   16.8328   13.6744   54.9126 H   0  0  0  0  0  0  0  0  0  0  0  0
   19.1683   13.2457   55.2394 H   0  0  0  0  0  0  0  0  0  0  0  0
   21.9911   15.2664   59.7943 H   0  0  0  0  0  0  0  0  0  0  0  0
   24.6126   18.6171   59.0604 H   0  0  0  0  0  0  0  0  0  0  0  0
  1  2  1  0  0  0  0
  2  3  2  0  0  0  0
  2  4  1  0  0  0  0
  4  5  2  0  0  0  0
  5  6  1  0  0  0  0
  6  7  2  0  0  0  0
  7  8  1  0  0  0  0
  8  9  1  0  0  0  0
  9 10  2  0  0  0  0
 10 11  1  0  0  0  0
 11 12  1  0  0  0  0
 12 13  1  0  0  0  0
 13 14  2  0  0  0  0
 14 15  1  0  0  0  0
 15 16  2  0  0  0  0
 16 17  1  0  0  0  0
 17 18  1  0  0  0  0
 18 19  1  0  0  0  0
 18 20  1  0  0  0  0
 18 21  1  0  0  0  0
 16 22  1  0  0  0  0
 22 23  2  0  0  0  0
 11 24  2  0  0  0  0
 24 25  1  0  0  0  0
 25 26  2  0  0  0  0
  8 27  2  0  0  0  0
 27  4  1  0  0  0  0
 26  9  1  0  0  0  0
 23 13  1  0  0  0  0
  1 28  1  0  0  0  0
  1 29  1  0  0  0  0
  5 30  1  0  0  0  0
  6 31  1  0  0  0  0
  7 32  1  0  0  0  0
 10 33  1  0  0  0  0
 12 34  1  0  0  0  0
 14 35  1  0  0  0  0
 15 36  1  0  0  0  0
 22 37  1  0  0  0  0
 23 38  1  0  0  0  0
 25 39  1  0  0  0  0
 27 40  1  0  0  0  0
M  END
>  <docking-score>
-28.19

$$$$
3K5V_STJ_2
foFlexX   03192112273D 1   1.00000     0.00000     0
FlexX 4.5.0 fol007
 40 42  0  0  0  0            999 V2000
   27.8400   21.1808   58.8734 N   0  0  0  0  0  0  0  0  0  0  0  0
   26.6534   20.3962   59.0226 C   0  0  0  0  0  0  0  0  0  0  0  0
   25.8889   20.6295   59.9978 O   0  0  0  0  0  0  0  0  0  0  0  0
   26.2996   19.3326   58.0501 C   0  0  0  0  0  0  0  0  0  0  0  0
   27.1406   19.0720   56.9730 C   0  0  0  0  0  0  0  0  0  0  0  0
   26.7926   18.0711   56.0715 C   0  0  0  0  0  0  0  0  0  0  0  0
   25.6234   17.3355   56.2346 C   0  0  0  0  0  0  0  0  0  0  0  0
   24.7973   17.6127   57.3194 C   0  0  0  0  0  0  0  0  0  0  0  0
   23.5757   16.8515   57.4995 C   0  0  0  0  0  0  0  0  0  0  0  0
   22.9197   16.3493   56.3805 C   0  0  0  0  0  0  0  0  0  0  0  0
   21.7490   15.6209   56.5645 C   0  0  0  0  0  0  0  0  0  0  0  0
   21.0797   15.1112   55.4445 N   0  0  0  0  0  0  0  0  0  0  0  0
   19.6574   14.9114   55.3792 C   0  0  0  0  0  0  0  0  0  0  0  0
   18.8029   15.9973   55.5418 C   0  0  0  0  0  0  0  0  0  0  0  0
   17.4249   15.8135   55.4800 C   0  0  0  0  0  0  0  0  0  0  0  0
   16.9196   14.5372   55.2554 C   0  0  0  0  0  0  0  0  0  0  0  0
   15.5853   14.3456   55.1941 O   0  0  0  0  0  0  0  0  0  0  0  0
   14.7065   14.9627   54.2558 C   0  0  0  0  0  0  0  0  0  0  0  0
   15.0720   14.6230   52.9656 F   0  0  0  0  0  0  0  0  0  0  0  0
   14.7354   16.3374   54.4081 F   0  0  0  0  0  0  0  0  0  0  0  0
   13.4197   14.5162   54.4863 F   0  0  0  0  0  0  0  0  0  0  0  0
   17.7668   13.4452   55.0923 C   0  0  0  0  0  0  0  0  0  0  0  0
   19.1428   13.6381   55.1552 C   0  0  0  0  0  0  0  0  0  0  0  0
   21.2900   15.4249   57.8100 N   0  0  0  0  0  0  0  0  0  0  0  0
   21.9338   15.9152   58.8800 C   0  0  0  0  0  0  0  0  0  0  0  0
   23.0638   16.6198   58.7177 N   0  0  0  0  0  0  0  0  0  0  0  0
   25.1258   18.6091   58.2329 C   0  0  0  0  0  0  0  0  0  0  0  0
   28.2973   21.5540   59.6806 H   0  0  0  0  0  0  0  0  0  0  0  0
   28.2122   21.3561   57.9620 H   0  0  0  0  0  0  0  0  0  0  0  0
   27.9829   19.5965   56.8485 H   0  0  0  0  0  0  0  0  0  0  0  0
   27.3919   17.8777   55.2948 H   0  0  0  0  0  0  0  0  0  0  0  0
   25.3802   16.6180   55.5819 H   0  0  0  0  0  0  0  0  0  0  0  0
   23.2823   16.5087   55.4623 H   0  0  0  0  0  0  0  0  0  0  0  0
   21.6246   14.8715   54.6411 H   0  0  0  0  0  0  0  0  0  0  0  0
   19.1789   16.9097   55.7031 H   0  0  0  0  0  0  0  0  0  0  0  0
   16.8053   16.5898   55.5956 H   0  0  0  0  0  0  0  0  0  0  0  0
   17.3907   12.5326   54.9316 H   0  0  0  0  0  0  0  0  0  0  0  0
   19.7624   12.8617   55.0396 H   0  0  0  0  0  0  0  0  0  0  0  0
   21.5715   15.7555   59.7982 H   0  0  0  0  0  0  0  0  0  0  0  0
   24.5266   18.8025   59.0099 H   0  0  0  0  0  0  0  0  0  0  0  0
  1  2  1  0  0  0  0
  2  3  2  0  0  0  0
  2  4  1  0  0  0  0
  4  5  2  0  0  0  0
  5  6  1  0  0  0  0
  6  7  2  0  0  0  0
  7  8  1  0  0  0  0
  8  9  1  0  0  0  0
  9 10  2  0  0  0  0
 10 11  1  0  0  0  0
 11 12  1  0  0  0  0
 12 13  1  0  0  0  0
 13 14  2  0  0  0  0
 14 15  1  0  0  0  0
 15 16  2  0  0  0  0
 16 17  1  0  0  0  0
 17 18  1  0  0  0  0
 18 19  1  0  0  0  0
 18 20  1  0  0  0  0
 18 21  1  0  0  0  0
 16 22  1  0  0  0  0
 22 23  2  0  0  0  0
 11 24  2  0  0  0  0
 24 25  1  0  0  0  0
 25 26  2  0  0  0  0
  8 27  2  0  0  0  0
 27  4  1  0  0  0  0
 26  9  1  0  0  0  0
 23 13  1  0  0  0  0
  1 28  1  0  0  0  0
  1 29  1  0  0  0  0
  5 30  1  0  0  0  0
  6 31  1  0  0  0  0
  7 32  1  0  0  0  0
 10 33  1  0  0  0  0
 12 34  1  0  0  0  0
 14 35  1  0  0  0  0
 15 36  1  0  0  0  0
 22 37  1  0  0  0  0
 23 38  1  0  0  0  0
 25 39  1  0  0  0  0
 27 40  1  0  0  0  0
M  END
>  <docking-score>
-26.77

$$$$
3K5V_STJ_3
foFlexX   03192112273D 1   1.00000     0.00000     0
FlexX 4.5.0 fol007
 40 42  0  0  0  0            999 V2000
   28.2730   21.2937   59.0099 N   0  0  0  0  0  0  0  0  0  0  0  0
   27.1826   20.3977   59.2424 C   0  0  0  0  0  0  0  0  0  0  0  0
   26.7698   20.2359   60.4229 O   0  0  0  0  0  0  0  0  0  0  0  0
   26.5228   19.6735   58.1278 C   0  0  0  0  0  0  0  0  0  0  0  0
   26.9754   19.8492   56.8242 C   0  0  0  0  0  0  0  0  0  0  0  0
   26.3444   19.1619   55.7922 C   0  0  0  0  0  0  0  0  0  0  0  0
   25.2758   18.3092   56.0481 C   0  0  0  0  0  0  0  0  0  0  0  0
   24.8398   18.1482   57.3596 C   0  0  0  0  0  0  0  0  0  0  0  0
   23.7265   17.2611   57.6382 C   0  0  0  0  0  0  0  0  0  0  0  0
   23.1171   16.5880   56.5845 C   0  0  0  0  0  0  0  0  0  0  0  0
   22.0501   15.7399   56.8627 C   0  0  0  0  0  0  0  0  0  0  0  0
   21.4285   15.0577   55.8091 N   0  0  0  0  0  0  0  0  0  0  0  0
   20.0388   15.1983   55.4683 C   0  0  0  0  0  0  0  0  0  0  0  0
   19.3900   16.4045   55.7133 C   0  0  0  0  0  0  0  0  0  0  0  0
   18.0452   16.5499   55.3867 C   0  0  0  0  0  0  0  0  0  0  0  0
   17.3654   15.4787   54.8165 C   0  0  0  0  0  0  0  0  0  0  0  0
   16.0609   15.6067   54.4958 O   0  0  0  0  0  0  0  0  0  0  0  0
   15.5618   16.0605   53.2395 C   0  0  0  0  0  0  0  0  0  0  0  0
   15.9923   15.2240   52.2253 F   0  0  0  0  0  0  0  0  0  0  0  0
   15.9871   17.3544   52.9966 F   0  0  0  0  0  0  0  0  0  0  0  0
   14.1809   16.0448   53.2737 F   0  0  0  0  0  0  0  0  0  0  0  0
   18.0061   14.2684   54.5684 C   0  0  0  0  0  0  0  0  0  0  0  0
   19.3505   14.1321   54.8978 C   0  0  0  0  0  0  0  0  0  0  0  0
   21.6429   15.5967   58.1332 N   0  0  0  0  0  0  0  0  0  0  0  0
   22.2408   16.2524   59.1394 C   0  0  0  0  0  0  0  0  0  0  0  0
   23.2707   17.0739   58.8860 N   0  0  0  0  0  0  0  0  0  0  0  0
   25.4561   18.8256   58.4069 C   0  0  0  0  0  0  0  0  0  0  0  0
   28.9681   21.4292   59.7159 H   0  0  0  0  0  0  0  0  0  0  0  0
   28.3402   21.7847   58.1413 H   0  0  0  0  0  0  0  0  0  0  0  0
   27.7430   20.4605   56.6318 H   0  0  0  0  0  0  0  0  0  0  0  0
   26.6640   19.2828   54.8524 H   0  0  0  0  0  0  0  0  0  0  0  0
   24.8273   17.8192   55.3006 H   0  0  0  0  0  0  0  0  0  0  0  0
   23.4394   16.7113   55.6459 H   0  0  0  0  0  0  0  0  0  0  0  0
   21.9855   14.4344   55.2602 H   0  0  0  0  0  0  0  0  0  0  0  0
   19.8900   17.1668   56.1242 H   0  0  0  0  0  0  0  0  0  0  0  0
   17.5731   17.4143   55.5598 H   0  0  0  0  0  0  0  0  0  0  0  0
   17.5058   13.5059   54.1582 H   0  0  0  0  0  0  0  0  0  0  0  0
   19.8225   13.2676   54.7246 H   0  0  0  0  0  0  0  0  0  0  0  0
   21.9187   16.1289   60.0780 H   0  0  0  0  0  0  0  0  0  0  0  0
   25.1367   18.7046   59.3468 H   0  0  0  0  0  0  0  0  0  0  0  0
  1  2  1  0  0  0  0
  2  3  2  0  0  0  0
  2  4  1  0  0  0  0
  4  5  2  0  0  0  0
  5  6  1  0  0  0  0
  6  7  2  0  0  0  0
  7  8  1  0  0  0  0
  8  9  1  0  0  0  0
  9 10  2  0  0  0  0
 10 11  1  0  0  0  0
 11 12  1  0  0  0  0
 12 13  1  0  0  0  0
 13 14  2  0  0  0  0
 14 15  1  0  0  0  0
 15 16  2  0  0  0  0
 16 17  1  0  0  0  0
 17 18  1  0  0  0  0
 18 19  1  0  0  0  0
 18 20  1  0  0  0  0
 18 21  1  0  0  0  0
 16 22  1  0  0  0  0
 22 23  2  0  0  0  0
 11 24  2  0  0  0  0
 24 25  1  0  0  0  0
 25 26  2  0  0  0  0
  8 27  2  0  0  0  0
 27  4  1  0  0  0  0
 26  9  1  0  0  0  0
 23 13  1  0  0  0  0
  1 28  1  0  0  0  0
  1 29  1  0  0  0  0
  5 30  1  0  0  0  0
  6 31  1  0  0  0  0
  7 32  1  0  0  0  0
 10 33  1  0  0  0  0
 12 34  1  0  0  0  0
 14 35  1  0  0  0  0
 15 36  1  0  0  0  0
 22 37  1  0  0  0  0
 23 38  1  0  0  0  0
 25 39  1  0  0  0  0
 27 40  1  0  0  0  0
M  END
>  <docking-score>
-26.75

$$$$
3K5V_STI_1
foFlexX   03192112273D 1   1.00000     0.00000     0
FlexX 4.5.0 fol007
 70 74  0  0  0  0            999 V2000
   21.6730   12.9375   56.7951 C   0  0  0  0  0  0  0  0  0  0  0  0
   20.3346   13.4512   56.2896 C   0  0  0  0  0  0  0  0  0  0  0  0
   19.2425   12.5897   56.2940 C   0  0  0  0  0  0  0  0  0  0  0  0
   18.0053   13.0328   55.8375 C   0  0  0  0  0  0  0  0  0  0  0  0
   17.8753   14.3399   55.3799 C   0  0  0  0  0  0  0  0  0  0  0  0
   16.6347   14.7957   54.9182 N   0  0  0  0  0  0  0  0  0  0  0  0
   16.4806   15.8039   53.9050 C   0  0  0  0  0  0  0  0  0  0  0  0
   17.3564   16.7036   53.7810 O   0  0  0  0  0  0  0  0  0  0  0  0
   15.2789   15.8309   53.0360 C   0  0  0  0  0  0  0  0  0  0  0  0
   14.4214   14.7354   53.0236 C   0  0  0  0  0  0  0  0  0  0  0  0
   13.2896   14.7468   52.2146 C   0  0  0  0  0  0  0  0  0  0  0  0
   13.0326   15.8636   51.4248 C   0  0  0  0  0  0  0  0  0  0  0  0
   11.8001   15.8896   50.5352 C   0  0  0  0  0  0  0  0  0  0  0  0
   10.6169   16.4571   51.2334 N   0  3  0  0  0  0  0  0  0  0  0  0
    9.3710   15.8601   50.7134 C   0  0  0  0  0  0  0  0  0  0  0  0
    8.5696   15.1691   51.8045 C   0  0  0  0  0  0  0  0  0  0  0  0
    8.3081   16.1051   52.9094 N   0  3  0  0  0  0  0  0  0  0  0  0
    7.6418   15.3948   54.0084 C   0  0  0  0  0  0  0  0  0  0  0  0
    9.5176   16.7943   53.3924 C   0  0  0  0  0  0  0  0  0  0  0  0
   10.7764   16.3140   52.6871 C   0  0  0  0  0  0  0  0  0  0  0  0
   13.8873   16.9609   51.4339 C   0  0  0  0  0  0  0  0  0  0  0  0
   15.0179   16.9447   52.2449 C   0  0  0  0  0  0  0  0  0  0  0  0
   18.9628   15.2075   55.3724 C   0  0  0  0  0  0  0  0  0  0  0  0
   20.1971   14.7574   55.8303 C   0  0  0  0  0  0  0  0  0  0  0  0
   21.3315   15.6428   55.8291 N   0  0  0  0  0  0  0  0  0  0  0  0
   22.0384   15.9983   56.9850 C   0  0  0  0  0  0  0  0  0  0  0  0
   21.6475   15.4933   58.1643 N   0  0  0  0  0  0  0  0  0  0  0  0
   22.2864   15.7989   59.3032 C   0  0  0  0  0  0  0  0  0  0  0  0
   23.3798   16.6580   59.2666 C   0  0  0  0  0  0  0  0  0  0  0  0
   23.7777   17.1767   58.0391 C   0  0  0  0  0  0  0  0  0  0  0  0
   24.9179   18.0745   57.9921 C   0  0  0  0  0  0  0  0  0  0  0  0
   25.1988   18.8812   59.0897 C   0  0  0  0  0  0  0  0  0  0  0  0
   26.2921   19.7389   59.0411 C   0  0  0  0  0  0  0  0  0  0  0  0
   27.0729   19.7618   57.8903 C   0  0  0  0  0  0  0  0  0  0  0  0
   26.7817   18.9741   56.8444 N   0  0  0  0  0  0  0  0  0  0  0  0
   25.7328   18.1380   56.8666 C   0  0  0  0  0  0  0  0  0  0  0  0
   23.0925   16.8288   56.9377 N   0  0  0  0  0  0  0  0  0  0  0  0
   22.3553   13.6658   56.7310 H   0  0  0  0  0  0  0  0  0  0  0  0
   21.5811   12.6498   57.7484 H   0  0  0  0  0  0  0  0  0  0  0  0
   21.9630   12.1591   56.2385 H   0  0  0  0  0  0  0  0  0  0  0  0
   19.3467   11.6520   56.6252 H   0  0  0  0  0  0  0  0  0  0  0  0
   17.2170   12.4175   55.8383 H   0  0  0  0  0  0  0  0  0  0  0  0
   15.8083   14.3971   55.3160 H   0  0  0  0  0  0  0  0  0  0  0  0
   14.6185   13.9397   53.5963 H   0  0  0  0  0  0  0  0  0  0  0  0
   12.6689   13.9628   52.2007 H   0  0  0  0  0  0  0  0  0  0  0  0
   11.5885   14.9547   50.2504 H   0  0  0  0  0  0  0  0  0  0  0  0
   11.9965   16.4473   49.7287 H   0  0  0  0  0  0  0  0  0  0  0  0
   10.5888   17.4357   51.0294 H   0  0  0  0  0  0  0  0  0  0  0  0
    9.6042   15.1886   50.0101 H   0  0  0  0  0  0  0  0  0  0  0  0
    8.8103   16.5836   50.3106 H   0  0  0  0  0  0  0  0  0  0  0  0
    7.6997   14.8528   51.4261 H   0  0  0  0  0  0  0  0  0  0  0  0
    9.0873   14.3863   52.1497 H   0  0  0  0  0  0  0  0  0  0  0  0
    7.6760   16.8028   52.5722 H   0  0  0  0  0  0  0  0  0  0  0  0
    8.2307   14.6543   54.3322 H   0  0  0  0  0  0  0  0  0  0  0  0
    7.4648   16.0321   54.7583 H   0  0  0  0  0  0  0  0  0  0  0  0
    6.7762   15.0143   53.6830 H   0  0  0  0  0  0  0  0  0  0  0  0
    9.6141   16.6250   54.3732 H   0  0  0  0  0  0  0  0  0  0  0  0
    9.4139   17.7760   53.2322 H   0  0  0  0  0  0  0  0  0  0  0  0
   11.5566   16.8608   52.9910 H   0  0  0  0  0  0  0  0  0  0  0  0
   10.9360   15.3525   52.9106 H   0  0  0  0  0  0  0  0  0  0  0  0
   13.6905   17.7566   50.8611 H   0  0  0  0  0  0  0  0  0  0  0  0
   15.6387   17.7285   52.2587 H   0  0  0  0  0  0  0  0  0  0  0  0
   18.8584   16.1452   55.0413 H   0  0  0  0  0  0  0  0  0  0  0  0
   21.6316   16.0253   54.9552 H   0  0  0  0  0  0  0  0  0  0  0  0
   21.9790   15.4119   60.1725 H   0  0  0  0  0  0  0  0  0  0  0  0
   23.8694   16.8975   60.1050 H   0  0  0  0  0  0  0  0  0  0  0  0
   24.6207   18.8448   59.9049 H   0  0  0  0  0  0  0  0  0  0  0  0
   26.5128   20.3279   59.8185 H   0  0  0  0  0  0  0  0  0  0  0  0
   27.8622   20.3738   57.8421 H   0  0  0  0  0  0  0  0  0  0  0  0
   25.5368   17.5605   56.0740 H   0  0  0  0  0  0  0  0  0  0  0  0
  1  2  1  0  0  0  0
  2  3  2  0  0  0  0
  3  4  1  0  0  0  0
  4  5  2  0  0  0  0
  5  6  1  0  0  0  0
  6  7  1  0  0  0  0
  7  8  2  0  0  0  0
  7  9  1  0  0  0  0
  9 10  2  0  0  0  0
 10 11  1  0  0  0  0
 11 12  2  0  0  0  0
 12 13  1  0  0  0  0
 13 14  1  0  0  0  0
 14 15  1  0  0  0  0
 15 16  1  0  0  0  0
 16 17  1  0  0  0  0
 17 18  1  0  0  0  0
 17 19  1  0  0  0  0
 19 20  1  0  0  0  0
 12 21  1  0  0  0  0
 21 22  2  0  0  0  0
  5 23  1  0  0  0  0
 23 24  2  0  0  0  0
 24 25  1  0  0  0  0
 25 26  1  0  0  0  0
 26 27  2  0  0  0  0
 27 28  1  0  0  0  0
 28 29  2  0  0  0  0
 29 30  1  0  0  0  0
 30 31  1  0  0  0  0
 31 32  2  0  0  0  0
 32 33  1  0  0  0  0
 33 34  2  0  0  0  0
 34 35  1  0  0  0  0
 35 36  2  0  0  0  0
 30 37  2  0  0  0  0
 24  2  1  0  0  0  0
 37 26  1  0  0  0  0
 22  9  1  0  0  0  0
 36 31  1  0  0  0  0
 20 14  1  0  0  0  0
  1 38  1  0  0  0  0
  1 39  1  0  0  0  0
  1 40  1  0  0  0  0
  3 41  1  0  0  0  0
  4 42  1  0  0  0  0
  6 43  1  0  0  0  0
 10 44  1  0  0  0  0
 11 45  1  0  0  0  0
 13 46  1  0  0  0  0
 13 47  1  0  0  0  0
 14 48  1  0  0  0  0
 15 49  1  0  0  0  0
 15 50  1  0  0  0  0
 16 51  1  0  0  0  0
 16 52  1  0  0  0  0
 17 53  1  0  0  0  0
 18 54  1  0  0  0  0
 18 55  1  0  0  0  0
 18 56  1  0  0  0  0
 19 57  1  0  0  0  0
 19 58  1  0  0  0  0
 20 59  1  0  0  0  0
 20 60  1  0  0  0  0
 21 61  1  0  0  0  0
 22 62  1  0  0  0  0
 23 63  1  0  0  0  0
 25 64  1  0  0  0  0
 28 65  1  0  0  0  0
 29 66  1  0  0  0  0
 32 67  1  0  0  0  0
 33 68  1  0  0  0  0
 34 69  1  0  0  0  0
 36 70  1  0  0  0  0
M  CHG  2  14   1  17   1
M  END
>  <docking-score>
-42.42

$$$$
3K5V_STI_2
foFlexX   03192112273D 1   1.00000     0.00000     0
FlexX 4.5.0 fol007
 70 74  0  0  0  0            999 V2000
   21.6951   12.9269   56.6381 C   0  0  0  0  0  0  0  0  0  0  0  0
   20.3320   13.4072   56.1673 C   0  0  0  0  0  0  0  0  0  0  0  0
   19.2700   12.5089   56.1656 C   0  0  0  0  0  0  0  0  0  0  0  0
   18.0111   12.9209   55.7403 C   0  0  0  0  0  0  0  0  0  0  0  0
   17.8293   14.2343   55.3198 C   0  0  0  0  0  0  0  0  0  0  0  0
   16.5665   14.6590   54.8897 N   0  0  0  0  0  0  0  0  0  0  0  0
   16.3616   15.6875   53.9063 C   0  0  0  0  0  0  0  0  0  0  0  0
   17.2042   16.6197   53.7928 O   0  0  0  0  0  0  0  0  0  0  0  0
   15.1457   15.6958   53.0571 C   0  0  0  0  0  0  0  0  0  0  0  0
   14.9549   16.7324   52.1491 C   0  0  0  0  0  0  0  0  0  0  0  0
   13.8197   16.7530   51.3449 C   0  0  0  0  0  0  0  0  0  0  0  0
   12.8867   15.7273   51.4638 C   0  0  0  0  0  0  0  0  0  0  0  0
   11.6412   15.7372   50.5921 C   0  0  0  0  0  0  0  0  0  0  0  0
   10.5131   16.4611   51.2348 N   0  3  0  0  0  0  0  0  0  0  0  0
    9.2196   15.8966   50.8020 C   0  0  0  0  0  0  0  0  0  0  0  0
    8.3955   15.3915   51.9750 C   0  0  0  0  0  0  0  0  0  0  0  0
    8.2199   16.4629   52.9681 N   0  3  0  0  0  0  0  0  0  0  0  0
    7.5293   15.9302   54.1494 C   0  0  0  0  0  0  0  0  0  0  0  0
    9.4825   17.1172   53.3540 C   0  0  0  0  0  0  0  0  0  0  0  0
   10.6917   16.4736   52.6932 C   0  0  0  0  0  0  0  0  0  0  0  0
   13.0732   14.6890   52.3704 C   0  0  0  0  0  0  0  0  0  0  0  0
   14.2102   14.6730   53.1723 C   0  0  0  0  0  0  0  0  0  0  0  0
   18.8864   15.1386   55.3187 C   0  0  0  0  0  0  0  0  0  0  0  0
   20.1427   14.7195   55.7452 C   0  0  0  0  0  0  0  0  0  0  0  0
   21.2462   15.6431   55.7500 N   0  0  0  0  0  0  0  0  0  0  0  0
   21.9595   15.9924   56.9039 C   0  0  0  0  0  0  0  0  0  0  0  0
   21.6053   15.4437   58.0753 N   0  0  0  0  0  0  0  0  0  0  0  0
   22.2521   15.7412   59.2118 C   0  0  0  0  0  0  0  0  0  0  0  0
   23.3149   16.6380   59.1812 C   0  0  0  0  0  0  0  0  0  0  0  0
   23.6747   17.2020   57.9620 C   0  0  0  0  0  0  0  0  0  0  0  0
   24.7829   18.1394   57.9212 C   0  0  0  0  0  0  0  0  0  0  0  0
   25.0541   18.9264   59.0355 C   0  0  0  0  0  0  0  0  0  0  0  0
   26.1167   19.8221   58.9928 C   0  0  0  0  0  0  0  0  0  0  0  0
   26.8773   19.9019   57.8311 C   0  0  0  0  0  0  0  0  0  0  0  0
   26.5959   19.1323   56.7692 N   0  0  0  0  0  0  0  0  0  0  0  0
   25.5766   18.2603   56.7853 C   0  0  0  0  0  0  0  0  0  0  0  0
   22.9838   16.8597   56.8624 N   0  0  0  0  0  0  0  0  0  0  0  0
   22.3511   13.6796   56.5829 H   0  0  0  0  0  0  0  0  0  0  0  0
   21.6287   12.6114   57.5848 H   0  0  0  0  0  0  0  0  0  0  0  0
   22.0023   12.1736   56.0565 H   0  0  0  0  0  0  0  0  0  0  0  0
   19.4115   11.5669   56.4701 H   0  0  0  0  0  0  0  0  0  0  0  0
   17.2443   12.2790   55.7370 H   0  0  0  0  0  0  0  0  0  0  0  0
   15.7608   14.2219   55.2895 H   0  0  0  0  0  0  0  0  0  0  0  0
   15.6337   17.4629   52.0744 H   0  0  0  0  0  0  0  0  0  0  0  0
   13.6762   17.4951   50.6901 H   0  0  0  0  0  0  0  0  0  0  0  0
   11.3613   14.7929   50.4192 H   0  0  0  0  0  0  0  0  0  0  0  0
   11.8586   16.1846   49.7245 H   0  0  0  0  0  0  0  0  0  0  0  0
   10.5470   17.4097   50.9201 H   0  0  0  0  0  0  0  0  0  0  0  0
    9.3929   15.1349   50.1778 H   0  0  0  0  0  0  0  0  0  0  0  0
    8.7011   16.6067   50.3256 H   0  0  0  0  0  0  0  0  0  0  0  0
    7.4988   15.0952   51.6460 H   0  0  0  0  0  0  0  0  0  0  0  0
    8.8660   14.6190   52.4015 H   0  0  0  0  0  0  0  0  0  0  0  0
    7.6297   17.1599   52.5607 H   0  0  0  0  0  0  0  0  0  0  0  0
    8.0733   15.1923   54.5490 H   0  0  0  0  0  0  0  0  0  0  0  0
    7.4107   16.6595   54.8233 H   0  0  0  0  0  0  0  0  0  0  0  0
    6.6336   15.5760   53.8805 H   0  0  0  0  0  0  0  0  0  0  0  0
    9.5870   17.0543   54.3465 H   0  0  0  0  0  0  0  0  0  0  0  0
    9.4421   18.0790   53.0834 H   0  0  0  0  0  0  0  0  0  0  0  0
   11.5129   16.9961   52.9228 H   0  0  0  0  0  0  0  0  0  0  0  0
   10.7905   15.5350   53.0238 H   0  0  0  0  0  0  0  0  0  0  0  0
   12.3943   13.9586   52.4454 H   0  0  0  0  0  0  0  0  0  0  0  0
   14.3538   13.9310   53.8272 H   0  0  0  0  0  0  0  0  0  0  0  0
   18.7448   16.0806   55.0144 H   0  0  0  0  0  0  0  0  0  0  0  0
   21.5187   16.0584   54.8821 H   0  0  0  0  0  0  0  0  0  0  0  0
   21.9722   15.3213   60.0752 H   0  0  0  0  0  0  0  0  0  0  0  0
   23.8097   16.8723   60.0180 H   0  0  0  0  0  0  0  0  0  0  0  0
   24.4911   18.8489   59.8583 H   0  0  0  0  0  0  0  0  0  0  0  0
   26.3300   20.3979   59.7822 H   0  0  0  0  0  0  0  0  0  0  0  0
   27.6445   20.5418   57.7869 H   0  0  0  0  0  0  0  0  0  0  0  0
   25.3873   17.6973   55.9808 H   0  0  0  0  0  0  0  0  0  0  0  0
  1  2  1  0  0  0  0
  2  3  2  0  0  0  0
  3  4  1  0  0  0  0
  4  5  2  0  0  0  0
  5  6  1  0  0  0  0
  6  7  1  0  0  0  0
  7  8  2  0  0  0  0
  7  9  1  0  0  0  0
  9 10  2  0  0  0  0
 10 11  1  0  0  0  0
 11 12  2  0  0  0  0
 12 13  1  0  0  0  0
 13 14  1  0  0  0  0
 14 15  1  0  0  0  0
 15 16  1  0  0  0  0
 16 17  1  0  0  0  0
 17 18  1  0  0  0  0
 17 19  1  0  0  0  0
 19 20  1  0  0  0  0
 12 21  1  0  0  0  0
 21 22  2  0  0  0  0
  5 23  1  0  0  0  0
 23 24  2  0  0  0  0
 24 25  1  0  0  0  0
 25 26  1  0  0  0  0
 26 27  2  0  0  0  0
 27 28  1  0  0  0  0
 28 29  2  0  0  0  0
 29 30  1  0  0  0  0
 30 31  1  0  0  0  0
 31 32  2  0  0  0  0
 32 33  1  0  0  0  0
 33 34  2  0  0  0  0
 34 35  1  0  0  0  0
 35 36  2  0  0  0  0
 30 37  2  0  0  0  0
 24  2  1  0  0  0  0
 37 26  1  0  0  0  0
 22  9  1  0  0  0  0
 36 31  1  0  0  0  0
 20 14  1  0  0  0  0
  1 38  1  0  0  0  0
  1 39  1  0  0  0  0
  1 40  1  0  0  0  0
  3 41  1  0  0  0  0
  4 42  1  0  0  0  0
  6 43  1  0  0  0  0
 10 44  1  0  0  0  0
 11 45  1  0  0  0  0
 13 46  1  0  0  0  0
 13 47  1  0  0  0  0
 14 48  1  0  0  0  0
 15 49  1  0  0  0  0
 15 50  1  0  0  0  0
 16 51  1  0  0  0  0
 16 52  1  0  0  0  0
 17 53  1  0  0  0  0
 18 54  1  0  0  0  0
 18 55  1  0  0  0  0
 18 56  1  0  0  0  0
 19 57  1  0  0  0  0
 19 58  1  0  0  0  0
 20 59  1  0  0  0  0
 20 60  1  0  0  0  0
 21 61  1  0  0  0  0
 22 62  1  0  0  0  0
 23 63  1  0  0  0  0
 25 64  1  0  0  0  0
 28 65  1  0  0  0  0
 29 66  1  0  0  0  0
 32 67  1  0  0  0  0
 33 68  1  0  0  0  0
 34 69  1  0  0  0  0
 36 70  1  0  0  0  0
M  CHG  2  14   1  17   1
M  END
>  <docking-score>
-42.40

$$$$
3K5V_STI_3
foFlexX   03192112273D 1   1.00000     0.00000     0
FlexX 4.5.0 fol007
 70 74  0  0  0  0            999 V2000
   21.6083   12.9299   56.6992 C   0  0  0  0  0  0  0  0  0  0  0  0
   20.2609   13.4262   56.2005 C   0  0  0  0  0  0  0  0  0  0  0  0
   19.1832   12.5467   56.1980 C   0  0  0  0  0  0  0  0  0  0  0  0
   17.9381   12.9736   55.7475 C   0  0  0  0  0  0  0  0  0  0  0  0
   17.7858   14.2827   55.3026 C   0  0  0  0  0  0  0  0  0  0  0  0
   16.5371   14.7222   54.8470 N   0  0  0  0  0  0  0  0  0  0  0  0
   16.3648   15.7375   53.8438 C   0  0  0  0  0  0  0  0  0  0  0  0
   17.2254   16.6527   53.7273 O   0  0  0  0  0  0  0  0  0  0  0  0
   15.1615   15.7528   52.9768 C   0  0  0  0  0  0  0  0  0  0  0  0
   15.0023   16.7773   52.0490 C   0  0  0  0  0  0  0  0  0  0  0  0
   13.8795   16.8043   51.2279 C   0  0  0  0  0  0  0  0  0  0  0  0
   12.9267   15.7972   51.3500 C   0  0  0  0  0  0  0  0  0  0  0  0
   11.6943   15.8143   50.4601 C   0  0  0  0  0  0  0  0  0  0  0  0
   10.5701   16.5686   51.0741 N   0  3  0  0  0  0  0  0  0  0  0  0
   10.9863   17.0865   52.3854 C   0  0  0  0  0  0  0  0  0  0  0  0
    9.8094   17.7331   53.1019 C   0  0  0  0  0  0  0  0  0  0  0  0
    8.6555   16.8221   53.1928 N   0  3  0  0  0  0  0  0  0  0  0  0
    8.2549   16.6191   54.5931 C   0  0  0  0  0  0  0  0  0  0  0  0
    8.8697   15.5164   52.5485 C   0  0  0  0  0  0  0  0  0  0  0  0
    9.3880   15.6889   51.1308 C   0  0  0  0  0  0  0  0  0  0  0  0
   13.0816   14.7712   52.2764 C   0  0  0  0  0  0  0  0  0  0  0  0
   14.2064   14.7487   53.0951 C   0  0  0  0  0  0  0  0  0  0  0  0
   18.8588   15.1682   55.3021 C   0  0  0  0  0  0  0  0  0  0  0  0
   20.1011   14.7343   55.7539 C   0  0  0  0  0  0  0  0  0  0  0  0
   21.2207   15.6383   55.7597 N   0  0  0  0  0  0  0  0  0  0  0  0
   21.9233   15.9943   56.9180 C   0  0  0  0  0  0  0  0  0  0  0  0
   21.5426   15.4717   58.0929 N   0  0  0  0  0  0  0  0  0  0  0  0
   22.1781   15.7769   59.2338 C   0  0  0  0  0  0  0  0  0  0  0  0
   23.2571   16.6543   59.2040 C   0  0  0  0  0  0  0  0  0  0  0  0
   23.6444   17.1913   57.9810 C   0  0  0  0  0  0  0  0  0  0  0  0
   24.7696   18.1083   57.9411 C   0  0  0  0  0  0  0  0  0  0  0  0
   25.0387   18.9090   59.0460 C   0  0  0  0  0  0  0  0  0  0  0  0
   26.1176   19.7851   59.0042 C   0  0  0  0  0  0  0  0  0  0  0  0
   26.8961   19.8319   57.8526 C   0  0  0  0  0  0  0  0  0  0  0  0
   26.6164   19.0497   56.7996 N   0  0  0  0  0  0  0  0  0  0  0  0
   25.5816   18.1961   56.8151 C   0  0  0  0  0  0  0  0  0  0  0  0
   22.9634   16.8427   56.8772 N   0  0  0  0  0  0  0  0  0  0  0  0
   22.2784   13.6700   56.6411 H   0  0  0  0  0  0  0  0  0  0  0  0
   21.5227   12.6316   57.6498 H   0  0  0  0  0  0  0  0  0  0  0  0
   21.9104   12.1618   56.1347 H   0  0  0  0  0  0  0  0  0  0  0  0
   19.3035   11.6077   56.5201 H   0  0  0  0  0  0  0  0  0  0  0  0
   17.1601   12.3453   55.7435 H   0  0  0  0  0  0  0  0  0  0  0  0
   15.7181   14.3061   55.2421 H   0  0  0  0  0  0  0  0  0  0  0  0
   15.6951   17.4943   51.9722 H   0  0  0  0  0  0  0  0  0  0  0  0
   13.7586   17.5376   50.5589 H   0  0  0  0  0  0  0  0  0  0  0  0
   11.4001   14.8723   50.2988 H   0  0  0  0  0  0  0  0  0  0  0  0
   11.9321   16.2432   49.5885 H   0  0  0  0  0  0  0  0  0  0  0  0
   10.3545   17.3464   50.4836 H   0  0  0  0  0  0  0  0  0  0  0  0
   11.7073   17.7673   52.2565 H   0  0  0  0  0  0  0  0  0  0  0  0
   11.3357   16.3322   52.9412 H   0  0  0  0  0  0  0  0  0  0  0  0
   10.0937   17.9882   54.0261 H   0  0  0  0  0  0  0  0  0  0  0  0
    9.5354   18.5530   52.5992 H   0  0  0  0  0  0  0  0  0  0  0  0
    7.8898   17.2634   52.7248 H   0  0  0  0  0  0  0  0  0  0  0  0
    8.0030   17.4979   54.9985 H   0  0  0  0  0  0  0  0  0  0  0  0
    7.4716   15.9986   54.6292 H   0  0  0  0  0  0  0  0  0  0  0  0
    9.0179   16.2229   55.1039 H   0  0  0  0  0  0  0  0  0  0  0  0
    8.0028   15.0186   52.5217 H   0  0  0  0  0  0  0  0  0  0  0  0
    9.5373   14.9949   53.0798 H   0  0  0  0  0  0  0  0  0  0  0  0
    9.6366   14.7912   50.7671 H   0  0  0  0  0  0  0  0  0  0  0  0
    8.6629   16.0870   50.5688 H   0  0  0  0  0  0  0  0  0  0  0  0
   12.3888   14.0542   52.3535 H   0  0  0  0  0  0  0  0  0  0  0  0
   14.3273   14.0154   53.7642 H   0  0  0  0  0  0  0  0  0  0  0  0
   18.7383   16.1072   54.9801 H   0  0  0  0  0  0  0  0  0  0  0  0
   21.5130   16.0341   54.8891 H   0  0  0  0  0  0  0  0  0  0  0  0
   21.8784   15.3766   60.0998 H   0  0  0  0  0  0  0  0  0  0  0  0
   23.7439   16.8938   60.0440 H   0  0  0  0  0  0  0  0  0  0  0  0
   24.4625   18.8552   59.8616 H   0  0  0  0  0  0  0  0  0  0  0  0
   26.3297   20.3702   59.7869 H   0  0  0  0  0  0  0  0  0  0  0  0
   27.6751   20.4575   57.8092 H   0  0  0  0  0  0  0  0  0  0  0  0
   25.3940   17.6231   56.0173 H   0  0  0  0  0  0  0  0  0  0  0  0
  1  2  1  0  0  0  0
  2  3  2  0  0  0  0
  3  4  1  0  0  0  0
  4  5  2  0  0  0  0
  5  6  1  0  0  0  0
  6  7  1  0  0  0  0
  7  8  2  0  0  0  0
  7  9  1  0  0  0  0
  9 10  2  0  0  0  0
 10 11  1  0  0  0  0
 11 12  2  0  0  0  0
 12 13  1  0  0  0  0
 13 14  1  0  0  0  0
 14 15  1  0  0  0  0
 15 16  1  0  0  0  0
 16 17  1  0  0  0  0
 17 18  1  0  0  0  0
 17 19  1  0  0  0  0
 19 20  1  0  0  0  0
 12 21  1  0  0  0  0
 21 22  2  0  0  0  0
  5 23  1  0  0  0  0
 23 24  2  0  0  0  0
 24 25  1  0  0  0  0
 25 26  1  0  0  0  0
 26 27  2  0  0  0  0
 27 28  1  0  0  0  0
 28 29  2  0  0  0  0
 29 30  1  0  0  0  0
 30 31  1  0  0  0  0
 31 32  2  0  0  0  0
 32 33  1  0  0  0  0
 33 34  2  0  0  0  0
 34 35  1  0  0  0  0
 35 36  2  0  0  0  0
 30 37  2  0  0  0  0
 24  2  1  0  0  0  0
 37 26  1  0  0  0  0
 22  9  1  0  0  0  0
 36 31  1  0  0  0  0
 20 14  1  0  0  0  0
  1 38  1  0  0  0  0
  1 39  1  0  0  0  0
  1 40  1  0  0  0  0
  3 41  1  0  0  0  0
  4 42  1  0  0  0  0
  6 43  1  0  0  0  0
 10 44  1  0  0  0  0
 11 45  1  0  0  0  0
 13 46  1  0  0  0  0
 13 47  1  0  0  0  0
 14 48  1  0  0  0  0
 15 49  1  0  0  0  0
 15 50  1  0  0  0  0
 16 51  1  0  0  0  0
 16 52  1  0  0  0  0
 17 53  1  0  0  0  0
 18 54  1  0  0  0  0
 18 55  1  0  0  0  0
 18 56  1  0  0  0  0
 19 57  1  0  0  0  0
 19 58  1  0  0  0  0
 20 59  1  0  0  0  0
 20 60  1  0  0  0  0
 21 61  1  0  0  0  0
 22 62  1  0  0  0  0
 23 63  1  0  0  0  0
 25 64  1  0  0  0  0
 28 65  1  0  0  0  0
 29 66  1  0  0  0  0
 32 67  1  0  0  0  0
 33 68  1  0  0  0  0
 34 69  1  0  0  0  0
 36 70  1  0  0  0  0
M  CHG  2  14   1  17   1
M  END
>  <docking-score>
-42.31

$$$$
3KFA_B91_1
foFlexX   03192112273D 1   1.00000     0.00000     0
FlexX 4.5.0 fol007
 66 71  0  0  0  0            999 V2000
    9.2733   13.2342   54.7392 C   0  0  0  0  0  0  0  0  0  0  0  0
   10.2606   14.1081   53.9819 C   0  0  0  0  0  0  0  0  0  0  0  0
   11.5850   14.2288   54.2680 C   0  0  0  0  0  0  0  0  0  0  0  0
   12.0887   15.1000   53.3515 N   0  0  0  0  0  0  0  0  0  0  0  0
   13.4187   15.5270   53.2623 C   0  0  0  0  0  0  0  0  0  0  0  0
   14.3496   15.0422   54.1743 C   0  0  0  0  0  0  0  0  0  0  0  0
   15.6695   15.4712   54.0780 C   0  0  0  0  0  0  0  0  0  0  0  0
   16.6208   14.9932   54.9866 N   0  0  0  0  0  0  0  0  0  0  0  0
   17.7715   15.7467   55.4059 C   0  0  0  0  0  0  0  0  0  0  0  0
   17.7119   17.0065   55.4462 O   0  0  0  0  0  0  0  0  0  0  0  0
   19.0133   15.0601   55.8391 C   0  0  0  0  0  0  0  0  0  0  0  0
   18.9698   13.7174   56.1992 C   0  0  0  0  0  0  0  0  0  0  0  0
   20.1337   13.0744   56.6068 C   0  0  0  0  0  0  0  0  0  0  0  0
   21.3348   13.7739   56.6528 C   0  0  0  0  0  0  0  0  0  0  0  0
   22.5865   13.0379   57.1026 C   0  0  0  0  0  0  0  0  0  0  0  0
   21.3722   15.1170   56.2915 C   0  0  0  0  0  0  0  0  0  0  0  0
   22.6086   15.8744   56.3286 C   0  0  0  0  0  0  0  0  0  0  0  0
   22.7526   16.9615   57.0961 C   0  0  0  0  0  0  0  0  0  0  0  0
   23.9734   17.7194   57.1405 N   0  0  0  0  0  0  0  0  0  0  0  0
   24.8494   17.8427   56.1024 C   0  0  0  0  0  0  0  0  0  0  0  0
   25.8440   18.6018   56.5068 N   0  0  0  0  0  0  0  0  0  0  0  0
   25.6123   18.9697   57.8017 C   0  0  0  0  0  0  0  0  0  0  0  0
   26.2850   19.7418   58.7421 C   0  0  0  0  0  0  0  0  0  0  0  0
   27.5038   20.3445   58.4075 N   0  0  0  0  0  0  0  0  0  0  0  0
   28.5720   20.8523   59.2877 C   0  0  0  0  0  0  0  0  0  0  0  0
   28.3492   20.4482   60.7166 C   0  0  0  0  0  0  0  0  0  0  0  0
   28.0545   21.8547   60.2789 C   0  0  0  0  0  0  0  0  0  0  0  0
   25.7827   19.9204   59.9740 N   0  0  0  0  0  0  0  0  0  0  0  0
   24.6206   19.3652   60.3448 C   0  0  0  0  0  0  0  0  0  0  0  0
   23.9494   18.6146   59.4598 N   0  0  0  0  0  0  0  0  0  0  0  0
   24.4263   18.4208   58.2215 C   0  0  0  0  0  0  0  0  0  0  0  0
   20.2112   15.7656   55.8831 C   0  0  0  0  0  0  0  0  0  0  0  0
   16.0637   16.3699   53.0922 C   0  0  0  0  0  0  0  0  0  0  0  0
   15.1122   16.8397   52.1933 C   0  0  0  0  0  0  0  0  0  0  0  0
   15.5209   17.8154   51.1174 C   0  0  0  0  0  0  0  0  0  0  0  0
   14.7300   17.6614   49.9922 F   0  0  0  0  0  0  0  0  0  0  0  0
   15.3785   19.1046   51.5950 F   0  0  0  0  0  0  0  0  0  0  0  0
   16.8399   17.6148   50.7479 F   0  0  0  0  0  0  0  0  0  0  0  0
   13.7861   16.4262   52.2671 C   0  0  0  0  0  0  0  0  0  0  0  0
   11.0658   15.4827   52.5363 C   0  0  0  0  0  0  0  0  0  0  0  0
    9.9553   14.8895   52.9076 N   0  0  0  0  0  0  0  0  0  0  0  0
    8.3664   13.3218   54.3271 H   0  0  0  0  0  0  0  0  0  0  0  0
    9.5694   12.2802   54.6936 H   0  0  0  0  0  0  0  0  0  0  0  0
    9.2348   13.5260   55.6949 H   0  0  0  0  0  0  0  0  0  0  0  0
   12.0864   13.7708   55.0020 H   0  0  0  0  0  0  0  0  0  0  0  0
   14.0752   14.3966   54.8870 H   0  0  0  0  0  0  0  0  0  0  0  0
   16.4931   14.0765   55.3653 H   0  0  0  0  0  0  0  0  0  0  0  0
   18.1051   13.2164   56.1651 H   0  0  0  0  0  0  0  0  0  0  0  0
   20.1069   12.1091   56.8668 H   0  0  0  0  0  0  0  0  0  0  0  0
   23.3659   13.6642   57.0850 H   0  0  0  0  0  0  0  0  0  0  0  0
   22.4554   12.6950   58.0328 H   0  0  0  0  0  0  0  0  0  0  0  0
   22.7616   12.2704   56.4860 H   0  0  0  0  0  0  0  0  0  0  0  0
   23.3773   15.5752   55.7633 H   0  0  0  0  0  0  0  0  0  0  0  0
   21.9817   17.2576   57.6601 H   0  0  0  0  0  0  0  0  0  0  0  0
   24.7526   17.4300   55.1967 H   0  0  0  0  0  0  0  0  0  0  0  0
   27.6748   20.4454   57.4274 H   0  0  0  0  0  0  0  0  0  0  0  0
   29.5044   20.9383   58.9367 H   0  0  0  0  0  0  0  0  0  0  0  0
   29.1313   20.2632   61.3116 H   0  0  0  0  0  0  0  0  0  0  0  0
   27.5989   19.8297   60.9501 H   0  0  0  0  0  0  0  0  0  0  0  0
   27.1082   22.1725   60.2210 H   0  0  0  0  0  0  0  0  0  0  0  0
   28.6405   22.6060   60.5825 H   0  0  0  0  0  0  0  0  0  0  0  0
   24.2600   19.5086   61.2664 H   0  0  0  0  0  0  0  0  0  0  0  0
   20.2377   16.7310   55.6234 H   0  0  0  0  0  0  0  0  0  0  0  0
   17.0147   16.6729   53.0309 H   0  0  0  0  0  0  0  0  0  0  0  0
   13.1090   16.7693   51.6160 H   0  0  0  0  0  0  0  0  0  0  0  0
   11.1487   16.1200   51.7701 H   0  0  0  0  0  0  0  0  0  0  0  0
  1  2  1  0  0  0  0
  2  3  2  0  0  0  0
  3  4  1  0  0  0  0
  4  5  1  0  0  0  0
  5  6  2  0  0  0  0
  6  7  1  0  0  0  0
  7  8  1  0  0  0  0
  8  9  1  0  0  0  0
  9 10  2  0  0  0  0
  9 11  1  0  0  0  0
 11 12  2  0  0  0  0
 12 13  1  0  0  0  0
 13 14  2  0  0  0  0
 14 15  1  0  0  0  0
 14 16  1  0  0  0  0
 16 17  1  0  0  0  0
 17 18  2  0  0  0  0
 18 19  1  0  0  0  0
 19 20  1  0  0  0  0
 20 21  2  0  0  0  0
 21 22  1  0  0  0  0
 22 23  2  0  0  0  0
 23 24  1  0  0  0  0
 24 25  1  0  0  0  0
 25 26  1  0  0  0  0
 26 27  1  0  0  0  0
 23 28  1  0  0  0  0
 28 29  2  0  0  0  0
 29 30  1  0  0  0  0
 30 31  2  0  0  0  0
 16 32  2  0  0  0  0
  7 33  2  0  0  0  0
 33 34  1  0  0  0  0
 34 35  1  0  0  0  0
 35 36  1  0  0  0  0
 35 37  1  0  0  0  0
 35 38  1  0  0  0  0
 34 39  2  0  0  0  0
  4 40  1  0  0  0  0
 40 41  2  0  0  0  0
 41  2  1  0  0  0  0
 39  5  1  0  0  0  0
 32 11  1  0  0  0  0
 31 19  1  0  0  0  0
 31 22  1  0  0  0  0
 27 25  1  0  0  0  0
  1 42  1  0  0  0  0
  1 43  1  0  0  0  0
  1 44  1  0  0  0  0
  3 45  1  0  0  0  0
  6 46  1  0  0  0  0
  8 47  1  0  0  0  0
 12 48  1  0  0  0  0
 13 49  1  0  0  0  0
 15 50  1  0  0  0  0
 15 51  1  0  0  0  0
 15 52  1  0  0  0  0
 17 53  1  0  0  0  0
 18 54  1  0  0  0  0
 20 55  1  0  0  0  0
 24 56  1  0  0  0  0
 25 57  1  0  0  0  0
 26 58  1  0  0  0  0
 26 59  1  0  0  0  0
 27 60  1  0  0  0  0
 27 61  1  0  0  0  0
 29 62  1  0  0  0  0
 32 63  1  0  0  0  0
 33 64  1  0  0  0  0
 39 65  1  0  0  0  0
 40 66  1  0  0  0  0
M  END
>  <docking-score>
-40.75

$$$$
3KFA_B91_2
foFlexX   03192112273D 1   1.00000     0.00000     0
FlexX 4.5.0 fol007
 66 71  0  0  0  0            999 V2000
    8.2930   15.1215   53.2011 C   0  0  0  0  0  0  0  0  0  0  0  0
    9.7617   14.7815   53.3994 C   0  0  0  0  0  0  0  0  0  0  0  0
   10.8073   15.5859   53.0677 C   0  0  0  0  0  0  0  0  0  0  0  0
   11.9316   14.9013   53.4137 N   0  0  0  0  0  0  0  0  0  0  0  0
   13.2498   15.3433   53.2525 C   0  0  0  0  0  0  0  0  0  0  0  0
   14.2243   14.9115   54.1455 C   0  0  0  0  0  0  0  0  0  0  0  0
   15.5322   15.3549   53.9775 C   0  0  0  0  0  0  0  0  0  0  0  0
   16.5543   14.9182   54.8905 N   0  0  0  0  0  0  0  0  0  0  0  0
   17.7085   15.7055   55.2304 C   0  0  0  0  0  0  0  0  0  0  0  0
   17.6302   16.9650   55.2200 O   0  0  0  0  0  0  0  0  0  0  0  0
   18.9776   15.0561   55.6412 C   0  0  0  0  0  0  0  0  0  0  0  0
   18.9704   13.7296   56.0590 C   0  0  0  0  0  0  0  0  0  0  0  0
   20.1599   13.1215   56.4456 C   0  0  0  0  0  0  0  0  0  0  0  0
   21.3504   13.8396   56.4131 C   0  0  0  0  0  0  0  0  0  0  0  0
   22.6309   13.1417   56.8421 C   0  0  0  0  0  0  0  0  0  0  0  0
   21.3516   15.1665   55.9943 C   0  0  0  0  0  0  0  0  0  0  0  0
   22.5761   15.9426   55.9490 C   0  0  0  0  0  0  0  0  0  0  0  0
   23.0010   16.6600   56.9959 C   0  0  0  0  0  0  0  0  0  0  0  0
   24.2129   17.4327   56.9619 N   0  0  0  0  0  0  0  0  0  0  0  0
   25.0469   17.5226   55.8865 C   0  0  0  0  0  0  0  0  0  0  0  0
   26.0465   18.3088   56.2207 N   0  0  0  0  0  0  0  0  0  0  0  0
   25.8598   18.7274   57.5075 C   0  0  0  0  0  0  0  0  0  0  0  0
   26.5582   19.5452   58.3886 C   0  0  0  0  0  0  0  0  0  0  0  0
   27.7555   20.1471   57.9827 N   0  0  0  0  0  0  0  0  0  0  0  0
   28.8500   20.7027   58.7994 C   0  0  0  0  0  0  0  0  0  0  0  0
   28.6872   20.3557   60.2511 C   0  0  0  0  0  0  0  0  0  0  0  0
   28.3582   21.7395   59.7679 C   0  0  0  0  0  0  0  0  0  0  0  0
   26.1011   19.7691   59.6308 N   0  0  0  0  0  0  0  0  0  0  0  0
   24.9611   19.2169   60.0686 C   0  0  0  0  0  0  0  0  0  0  0  0
   24.2662   18.4229   59.2418 N   0  0  0  0  0  0  0  0  0  0  0  0
   24.6979   18.1833   57.9950 C   0  0  0  0  0  0  0  0  0  0  0  0
   20.1648   15.7802   55.6066 C   0  0  0  0  0  0  0  0  0  0  0  0
   15.8719   16.2163   52.9394 C   0  0  0  0  0  0  0  0  0  0  0  0
   14.8777   16.6334   52.0610 C   0  0  0  0  0  0  0  0  0  0  0  0
   15.2296   17.5750   50.9209 C   0  0  0  0  0  0  0  0  0  0  0  0
   15.0953   18.8943   51.3176 F   0  0  0  0  0  0  0  0  0  0  0  0
   16.5379   17.3518   50.5346 F   0  0  0  0  0  0  0  0  0  0  0  0
   14.3969   17.3643   49.8353 F   0  0  0  0  0  0  0  0  0  0  0  0
   13.5624   16.2043   52.2061 C   0  0  0  0  0  0  0  0  0  0  0  0
   11.5439   13.7074   53.9448 C   0  0  0  0  0  0  0  0  0  0  0  0
   10.2340   13.6236   53.9414 N   0  0  0  0  0  0  0  0  0  0  0  0
    7.7283   14.3644   53.5297 H   0  0  0  0  0  0  0  0  0  0  0  0
    8.0705   15.9505   53.7142 H   0  0  0  0  0  0  0  0  0  0  0  0
    8.1143   15.2732   52.2289 H   0  0  0  0  0  0  0  0  0  0  0  0
   10.7596   16.4951   52.6539 H   0  0  0  0  0  0  0  0  0  0  0  0
   13.9892   14.2930   54.8953 H   0  0  0  0  0  0  0  0  0  0  0  0
   16.4567   14.0169   55.3124 H   0  0  0  0  0  0  0  0  0  0  0  0
   18.1132   13.2151   56.0813 H   0  0  0  0  0  0  0  0  0  0  0  0
   20.1591   12.1679   56.7469 H   0  0  0  0  0  0  0  0  0  0  0  0
   23.3987   13.7779   56.7663 H   0  0  0  0  0  0  0  0  0  0  0  0
   22.5428   12.8370   57.7905 H   0  0  0  0  0  0  0  0  0  0  0  0
   22.7935   12.3511   56.2518 H   0  0  0  0  0  0  0  0  0  0  0  0
   23.1196   15.9415   55.1097 H   0  0  0  0  0  0  0  0  0  0  0  0
   22.4548   16.6586   57.8336 H   0  0  0  0  0  0  0  0  0  0  0  0
   24.9209   17.0717   55.0029 H   0  0  0  0  0  0  0  0  0  0  0  0
   27.8877   20.2091   56.9934 H   0  0  0  0  0  0  0  0  0  0  0  0
   29.7672   20.7844   58.4093 H   0  0  0  0  0  0  0  0  0  0  0  0
   29.4937   20.2042   60.8226 H   0  0  0  0  0  0  0  0  0  0  0  0
   27.9543   19.7391   60.5387 H   0  0  0  0  0  0  0  0  0  0  0  0
   27.4063   22.0441   59.7338 H   0  0  0  0  0  0  0  0  0  0  0  0
   28.9458   22.5092   60.0176 H   0  0  0  0  0  0  0  0  0  0  0  0
   24.6343   19.3943   60.9969 H   0  0  0  0  0  0  0  0  0  0  0  0
   20.1652   16.7338   55.3055 H   0  0  0  0  0  0  0  0  0  0  0  0
   16.8147   16.5301   52.8267 H   0  0  0  0  0  0  0  0  0  0  0  0
   12.8543   16.5095   51.5694 H   0  0  0  0  0  0  0  0  0  0  0  0
   12.1644   13.0013   54.2858 H   0  0  0  0  0  0  0  0  0  0  0  0
  1  2  1  0  0  0  0
  2  3  2  0  0  0  0
  3  4  1  0  0  0  0
  4  5  1  0  0  0  0
  5  6  2  0  0  0  0
  6  7  1  0  0  0  0
  7  8  1  0  0  0  0
  8  9  1  0  0  0  0
  9 10  2  0  0  0  0
  9 11  1  0  0  0  0
 11 12  2  0  0  0  0
 12 13  1  0  0  0  0
 13 14  2  0  0  0  0
 14 15  1  0  0  0  0
 14 16  1  0  0  0  0
 16 17  1  0  0  0  0
 17 18  2  0  0  0  0
 18 19  1  0  0  0  0
 19 20  1  0  0  0  0
 20 21  2  0  0  0  0
 21 22  1  0  0  0  0
 22 23  2  0  0  0  0
 23 24  1  0  0  0  0
 24 25  1  0  0  0  0
 25 26  1  0  0  0  0
 26 27  1  0  0  0  0
 23 28  1  0  0  0  0
 28 29  2  0  0  0  0
 29 30  1  0  0  0  0
 30 31  2  0  0  0  0
 16 32  2  0  0  0  0
  7 33  2  0  0  0  0
 33 34  1  0  0  0  0
 34 35  1  0  0  0  0
 35 36  1  0  0  0  0
 35 37  1  0  0  0  0
 35 38  1  0  0  0  0
 34 39  2  0  0  0  0
  4 40  1  0  0  0  0
 40 41  2  0  0  0  0
 41  2  1  0  0  0  0
 39  5  1  0  0  0  0
 32 11  1  0  0  0  0
 31 19  1  0  0  0  0
 31 22  1  0  0  0  0
 27 25  1  0  0  0  0
  1 42  1  0  0  0  0
  1 43  1  0  0  0  0
  1 44  1  0  0  0  0
  3 45  1  0  0  0  0
  6 46  1  0  0  0  0
  8 47  1  0  0  0  0
 12 48  1  0  0  0  0
 13 49  1  0  0  0  0
 15 50  1  0  0  0  0
 15 51  1  0  0  0  0
 15 52  1  0  0  0  0
 17 53  1  0  0  0  0
 18 54  1  0  0  0  0
 20 55  1  0  0  0  0
 24 56  1  0  0  0  0
 25 57  1  0  0  0  0
 26 58  1  0  0  0  0
 26 59  1  0  0  0  0
 27 60  1  0  0  0  0
 27 61  1  0  0  0  0
 29 62  1  0  0  0  0
 32 63  1  0  0  0  0
 33 64  1  0  0  0  0
 39 65  1  0  0  0  0
 40 66  1  0  0  0  0
M  END
>  <docking-score>
-40.35

$$$$
3KFA_B91_3
foFlexX   03192112273D 1   1.00000     0.00000     0
FlexX 4.5.0 fol007
 66 71  0  0  0  0            999 V2000
    8.5008   14.9129   51.6730 C   0  0  0  0  0  0  0  0  0  0  0  0
    9.8568   14.8259   52.3555 C   0  0  0  0  0  0  0  0  0  0  0  0
   11.0293   15.2804   51.8370 C   0  0  0  0  0  0  0  0  0  0  0  0
   11.9828   15.0058   52.7686 N   0  0  0  0  0  0  0  0  0  0  0  0
   13.3481   15.2956   52.6629 C   0  0  0  0  0  0  0  0  0  0  0  0
   14.1983   14.9488   53.7071 C   0  0  0  0  0  0  0  0  0  0  0  0
   15.5539   15.2396   53.5934 C   0  0  0  0  0  0  0  0  0  0  0  0
   16.4492   14.8877   54.6628 N   0  0  0  0  0  0  0  0  0  0  0  0
   17.6470   15.6202   54.9730 C   0  0  0  0  0  0  0  0  0  0  0  0
   17.6993   16.8590   54.7390 O   0  0  0  0  0  0  0  0  0  0  0  0
   18.7795   14.9631   55.5962 C   0  0  0  0  0  0  0  0  0  0  0  0
   18.7271   13.5982   55.8581 C   0  0  0  0  0  0  0  0  0  0  0  0
   19.8127   12.9684   56.4572 C   0  0  0  0  0  0  0  0  0  0  0  0
   20.9450   13.7033   56.7918 C   0  0  0  0  0  0  0  0  0  0  0  0
   22.1124   12.9809   57.4446 C   0  0  0  0  0  0  0  0  0  0  0  0
   20.9917   15.0686   56.5275 C   0  0  0  0  0  0  0  0  0  0  0  0
   22.1810   15.8789   56.8708 C   0  0  0  0  0  0  0  0  0  0  0  0
   22.8778   16.5456   55.9428 C   0  0  0  0  0  0  0  0  0  0  0  0
   24.0041   17.3149   56.2569 N   0  0  0  0  0  0  0  0  0  0  0  0
   25.0577   17.5282   55.4176 C   0  0  0  0  0  0  0  0  0  0  0  0
   25.9234   18.2906   56.0487 N   0  0  0  0  0  0  0  0  0  0  0  0
   25.4315   18.5710   57.2918 C   0  0  0  0  0  0  0  0  0  0  0  0
   25.8779   19.3037   58.3858 C   0  0  0  0  0  0  0  0  0  0  0  0
   27.1122   19.9623   58.3284 N   0  0  0  0  0  0  0  0  0  0  0  0
   27.9688   20.4469   59.4262 C   0  0  0  0  0  0  0  0  0  0  0  0
   27.4918   19.9491   60.7601 C   0  0  0  0  0  0  0  0  0  0  0  0
   27.2289   21.3703   60.3507 C   0  0  0  0  0  0  0  0  0  0  0  0
   25.1406   19.3909   59.5042 N   0  0  0  0  0  0  0  0  0  0  0  0
   23.9529   18.7792   59.6107 C   0  0  0  0  0  0  0  0  0  0  0  0
   23.4965   18.0646   58.5724 N   0  0  0  0  0  0  0  0  0  0  0  0
   24.2107   17.9618   57.4420 C   0  0  0  0  0  0  0  0  0  0  0  0
   19.9088   15.7040   55.9285 C   0  0  0  0  0  0  0  0  0  0  0  0
   16.0625   15.8671   52.4609 C   0  0  0  0  0  0  0  0  0  0  0  0
   15.1901   16.2037   51.4315 C   0  0  0  0  0  0  0  0  0  0  0  0
   15.7272   16.8903   50.1863 C   0  0  0  0  0  0  0  0  0  0  0  0
   15.6974   18.2661   50.3357 F   0  0  0  0  0  0  0  0  0  0  0  0
   17.0325   16.4885   49.9731 F   0  0  0  0  0  0  0  0  0  0  0  0
   14.9672   16.5605   49.0773 F   0  0  0  0  0  0  0  0  0  0  0  0
   13.8304   15.9235   51.5196 C   0  0  0  0  0  0  0  0  0  0  0  0
   11.3701   14.3972   53.8231 C   0  0  0  0  0  0  0  0  0  0  0  0
   10.0844   14.2829   53.5849 N   0  0  0  0  0  0  0  0  0  0  0  0
    7.8030   14.5104   52.2655 H   0  0  0  0  0  0  0  0  0  0  0  0
    8.2768   15.8716   51.4978 H   0  0  0  0  0  0  0  0  0  0  0  0
    8.5310   14.4139   50.8069 H   0  0  0  0  0  0  0  0  0  0  0  0
   11.1634   15.7257   50.9517 H   0  0  0  0  0  0  0  0  0  0  0  0
   13.8414   14.4983   54.5255 H   0  0  0  0  0  0  0  0  0  0  0  0
   16.2261   14.0890   55.2217 H   0  0  0  0  0  0  0  0  0  0  0  0
   17.9120   13.0717   55.6164 H   0  0  0  0  0  0  0  0  0  0  0  0
   19.7791   11.9872   56.6475 H   0  0  0  0  0  0  0  0  0  0  0  0
   22.8486   13.6329   57.6257 H   0  0  0  0  0  0  0  0  0  0  0  0
   21.8112   12.5708   58.3054 H   0  0  0  0  0  0  0  0  0  0  0  0
   22.4452   12.2639   56.8322 H   0  0  0  0  0  0  0  0  0  0  0  0
   22.4732   15.9300   57.8258 H   0  0  0  0  0  0  0  0  0  0  0  0
   22.5826   16.4921   54.9889 H   0  0  0  0  0  0  0  0  0  0  0  0
   25.1545   17.1693   54.4892 H   0  0  0  0  0  0  0  0  0  0  0  0
   27.4645   20.1284   57.4074 H   0  0  0  0  0  0  0  0  0  0  0  0
   28.9469   20.5824   59.2687 H   0  0  0  0  0  0  0  0  0  0  0  0
   28.1516   19.7515   61.4851 H   0  0  0  0  0  0  0  0  0  0  0  0
   26.7369   19.2951   60.8089 H   0  0  0  0  0  0  0  0  0  0  0  0
   26.2991   21.6624   60.1270 H   0  0  0  0  0  0  0  0  0  0  0  0
   27.7137   22.1188   60.8032 H   0  0  0  0  0  0  0  0  0  0  0  0
   23.4159   18.8547   60.4509 H   0  0  0  0  0  0  0  0  0  0  0  0
   19.9420   16.6853   55.7385 H   0  0  0  0  0  0  0  0  0  0  0  0
   17.0385   16.0725   52.3882 H   0  0  0  0  0  0  0  0  0  0  0  0
   13.2108   16.1692   50.7741 H   0  0  0  0  0  0  0  0  0  0  0  0
   11.8310   14.0847   54.6536 H   0  0  0  0  0  0  0  0  0  0  0  0
  1  2  1  0  0  0  0
  2  3  2  0  0  0  0
  3  4  1  0  0  0  0
  4  5  1  0  0  0  0
  5  6  2  0  0  0  0
  6  7  1  0  0  0  0
  7  8  1  0  0  0  0
  8  9  1  0  0  0  0
  9 10  2  0  0  0  0
  9 11  1  0  0  0  0
 11 12  2  0  0  0  0
 12 13  1  0  0  0  0
 13 14  2  0  0  0  0
 14 15  1  0  0  0  0
 14 16  1  0  0  0  0
 16 17  1  0  0  0  0
 17 18  2  0  0  0  0
 18 19  1  0  0  0  0
 19 20  1  0  0  0  0
 20 21  2  0  0  0  0
 21 22  1  0  0  0  0
 22 23  2  0  0  0  0
 23 24  1  0  0  0  0
 24 25  1  0  0  0  0
 25 26  1  0  0  0  0
 26 27  1  0  0  0  0
 23 28  1  0  0  0  0
 28 29  2  0  0  0  0
 29 30  1  0  0  0  0
 30 31  2  0  0  0  0
 16 32  2  0  0  0  0
  7 33  2  0  0  0  0
 33 34  1  0  0  0  0
 34 35  1  0  0  0  0
 35 36  1  0  0  0  0
 35 37  1  0  0  0  0
 35 38  1  0  0  0  0
 34 39  2  0  0  0  0
  4 40  1  0  0  0  0
 40 41  2  0  0  0  0
 41  2  1  0  0  0  0
 39  5  1  0  0  0  0
 32 11  1  0  0  0  0
 31 19  1  0  0  0  0
 31 22  1  0  0  0  0
 27 25  1  0  0  0  0
  1 42  1  0  0  0  0
  1 43  1  0  0  0  0
  1 44  1  0  0  0  0
  3 45  1  0  0  0  0
  6 46  1  0  0  0  0
  8 47  1  0  0  0  0
 12 48  1  0  0  0  0
 13 49  1  0  0  0  0
 15 50  1  0  0  0  0
 15 51  1  0  0  0  0
 15 52  1  0  0  0  0
 17 53  1  0  0  0  0
 18 54  1  0  0  0  0
 20 55  1  0  0  0  0
 24 56  1  0  0  0  0
 25 57  1  0  0  0  0
 26 58  1  0  0  0  0
 26 59  1  0  0  0  0
 27 60  1  0  0  0  0
 27 61  1  0  0  0  0
 29 62  1  0  0  0  0
 32 63  1  0  0  0  0
 33 64  1  0  0  0  0
 39 65  1  0  0  0  0
 40 66  1  0  0  0  0
M  END
>  <docking-score>
-39.85

$$$$
