@<TRIPOS>MOLECULE
UNK
40 42 0 0 0
SMALL
GASTEIGER

@<TRIPOS>ATOM
   1    N       27.6900   45.9850   51.6650 N.am  1 UNL -0.3656
   2    C       26.6750   45.0150   51.9400 C.2   1 UNL  0.2482
   3    O       26.1600   44.3850   50.9770 O.2   1 UNL -0.2696
   4    C       26.2330   44.7270   53.3260 C.ar  1 UNL  0.0397
   5    C       27.1790   44.5170   54.3250 C.ar  1 UNL -0.0494
   6    C       26.7450   44.2480   55.6190 C.ar  1 UNL -0.0608
   7    C       25.3890   44.1880   55.9220 C.ar  1 UNL -0.0528
   8    C       24.4610   44.4020   54.9080 C.ar  1 UNL  0.0011
   9    C       23.0440   44.3430   55.2130 C.ar  1 UNL  0.0757
  10    C       22.1260   44.3420   54.1680 C.ar  1 UNL  0.0072
  11    C       20.7700   44.2850   54.4710 C.ar  1 UNL  0.1338
  12    N       19.8370   44.2840   53.4260 N.pl3 1 UNL -0.3401
  13    C       19.2560   43.0930   52.8670 C.ar  1 UNL  0.0398
  14    C       17.8730   42.9840   52.7700 C.ar  1 UNL -0.0349
  15    C       17.3020   41.8350   52.2300 C.ar  1 UNL -0.0175
  16    C       18.1300   40.8070   51.7930 C.ar  1 UNL  0.1291
  17    O       17.5890   39.6880   51.2680 O.3   1 UNL -0.4058
  18    C       17.5950   39.3400   49.8850 C.3   1 UNL  0.5726
  19    F       18.8950   39.2340   49.4250 F     1 UNL -0.1323
  20    F       16.9500   40.3320   49.1710 F     1 UNL -0.1323
  21    F       16.9260   38.1450   49.6910 F     1 UNL -0.1323
  22    C       19.5150   40.9070   51.8870 C.ar  1 UNL -0.0175
  23    C       20.0770   42.0590   52.4270 C.ar  1 UNL -0.0349
  24    N       20.3890   44.2320   55.7570 N.ar  1 UNL -0.2193
  25    C       21.2860   44.2340   56.7540 C.ar  1 UNL  0.1180
  26    N       22.5970   44.2890   56.4770 N.ar  1 UNL -0.2362
  27    C       24.8720   44.6730   53.6070 C.ar  1 UNL -0.0400
  28    H       28.1232   46.5103   52.4378 H     1 UNL  0.1595
  29    H       27.9875   46.1580   50.6942 H     1 UNL  0.1595
  30    H       28.2537   44.5630   54.0948 H     1 UNL  0.0631
  31    H       27.4857   44.0802   56.4147 H     1 UNL  0.0623
  32    H       25.0553   43.9745   56.9482 H     1 UNL  0.0630
  33    H       22.4659   44.3854   53.1227 H     1 UNL  0.0685
  34    H       19.5494   45.1920   53.0339 H     1 UNL  0.1681
  35    H       17.2305   43.8054   53.1199 H     1 UNL  0.0646
  36    H       16.2089   41.7415   52.1500 H     1 UNL  0.0663
  37    H       20.1574   40.0849   51.5384 H     1 UNL  0.0663
  38    H       21.1701   42.1528   52.5063 H     1 UNL  0.0646
  39    H       20.9463   44.1905   57.7993 H     1 UNL  0.1064
  40    H       24.1311   44.8422   52.8118 H     1 UNL  0.0638
@<TRIPOS>BOND
    1     2     1 am
    2     3     2  2
    3     4     2  1
    4     5     4 ar
    5     6     5 ar
    6     7     6 ar
    7     8     7 ar
    8     9     8  1
    9    10     9 ar
   10    11    10 ar
   11    12    11  1
   12    13    12  1
   13    14    13 ar
   14    15    14 ar
   15    16    15 ar
   16    17    16  1
   17    18    17  1
   18    19    18  1
   19    20    18  1
   20    21    18  1
   21    22    16 ar
   22    23    22 ar
   23    23    13 ar
   24    24    11 ar
   25    25    24 ar
   26    26    25 ar
   27    26     9 ar
   28    27     4 ar
   29    27     8 ar
   30     1    28  1
   31     1    29  1
   32     5    30  1
   33     6    31  1
   34     7    32  1
   35    10    33  1
   36    12    34  1
   37    14    35  1
   38    15    36  1
   39    22    37  1
   40    23    38  1
   41    25    39  1
   42    27    40  1