@<TRIPOS>MOLECULE
UNK
20 20 0 0 0
SMALL
GASTEIGER

@<TRIPOS>ATOM
   1    C       -2.2000   60.4490   31.8350 C.3   1 UNL  0.0810
   2    O       -2.7050   61.7360   31.5010 O.3   1 UNL -0.4654
   3    C       -2.4550   62.8700   32.2810 C.2   1 UNL  0.3395
   4    O       -1.7270   62.7830   33.3090 O.2   1 UNL -0.2461
   5    C       -2.9810   64.1600   31.8800 C.ar  1 UNL  0.0826
   6    C       -3.8490   64.2170   30.7930 C.ar  1 UNL -0.0441
   7    C       -4.3720   65.4390   30.3830 C.ar  1 UNL -0.0425
   8    C       -4.0200   66.5980   31.0680 C.ar  1 UNL  0.0426
   9   Cl       -4.6860   68.1650   30.5470 Cl    1 UNL -0.0843
  10    C       -3.1540   66.5490   32.1550 C.ar  1 UNL -0.0196
  11    C       -2.6340   65.3230   32.5600 C.ar  1 UNL  0.0476
  12    N       -1.7630   65.2930   33.6570 N.2   1 UNL -0.3980
  13    H       -2.1588   60.3439   32.9292 H     1 UNL  0.0670
  14    H       -2.8614   59.6758   31.4171 H     1 UNL  0.0670
  15    H       -1.1892   60.3319   31.4171 H     1 UNL  0.0670
  16    H       -4.1214   63.2952   30.2581 H     1 UNL  0.0633
  17    H       -5.0580   65.4888   29.5246 H     1 UNL  0.0639
  18    H       -2.8823   67.4709   32.6900 H     1 UNL  0.0661
  19    H       -1.5199   66.1665   34.1456 H     1 UNL  0.1562
  20    H       -1.3658   64.3974   33.9749 H     1 UNL  0.1562
@<TRIPOS>BOND
    1     2     1  1
    2     3     2  1
    3     4     3  2
    4     5     3  1
    5     6     5 ar
    6     7     6 ar
    7     8     7 ar
    8     9     8  1
    9    10     8 ar
   10    11     5 ar
   11    11    10 ar
   12    12    11  1
   13     1    13  1
   14     1    14  1
   15     1    15  1
   16     6    16  1
   17     7    17  1
   18    10    18  1
   19    12    19  1
   20    12    20  1