@<TRIPOS>MOLECULE
UNK
47 50 0 0 0
SMALL
GASTEIGER

@<TRIPOS>ATOM
   1    C       19.9540   53.8380   17.2570 C.3   1 UNL -0.0377
   2    C       19.8430   54.9100   16.1850 C.ar  1 UNL -0.0273
   3    C       20.0360   56.2390   16.5450 C.ar  1 UNL -0.0552
   4    C       19.9410   57.2410   15.5840 C.ar  1 UNL -0.0381
   5    C       19.6520   56.8990   14.2680 C.ar  1 UNL  0.0431
   6    N       19.5520   57.9260   13.2670 N.am  1 UNL -0.3219
   7    C       18.5120   58.9240   13.2440 C.2   1 UNL  0.2567
   8    O       17.6230   58.9260   14.1390 O.2   1 UNL -0.2689
   9    C       18.4670   59.9650   12.1890 C.ar  1 UNL  0.0580
  10    C       17.8930   61.2000   12.4710 C.ar  1 UNL -0.0464
  11    C       17.8530   62.1740   11.4790 C.ar  1 UNL -0.0430
  12    C       18.3910   61.8790   10.2310 C.ar  1 UNL  0.0268
  13    N       18.9400   60.6800    9.9830 N.ar  1 UNL -0.2639
  14    C       18.9910   59.7240   10.9230 C.ar  1 UNL  0.0395
  15    C       19.4580   55.5710   13.8990 C.ar  1 UNL -0.0145
  16    C       19.5540   54.5750   14.8650 C.ar  1 UNL  0.0459
  17    N       19.3610   53.2340   14.5100 N.pl3 1 UNL -0.3238
  18    C       19.2710   52.7780   13.1530 C.ar  1 UNL  0.2272
  19    N       19.9400   53.4420   12.2000 N.ar  1 UNL -0.2213
  20    C       19.8920   53.0610   10.9150 C.ar  1 UNL  0.0330
  21    C       19.1330   51.9520   10.5570 C.ar  1 UNL -0.0171
  22    C       18.4420   51.2690   11.5530 C.ar  1 UNL  0.0773
  23    C       17.6470   50.1100   11.1870 C.ar  1 UNL  0.0187
  24    C       18.2650   49.0190   10.5870 C.ar  1 UNL -0.0497
  25    C       17.5000   47.9100   10.2390 C.ar  1 UNL -0.0431
  26    C       16.1350   47.9310   10.5050 C.ar  1 UNL  0.0268
  27    N       15.5620   48.9960   11.0850 N.ar  1 UNL -0.2640
  28    C       16.2780   50.0760   11.4300 C.ar  1 UNL  0.0362
  29    N       18.5340   51.7050   12.8190 N.ar  1 UNL -0.2127
  30    H       19.9054   54.3069   18.2509 H     1 UNL  0.0280
  31    H       19.1251   53.1232   17.1479 H     1 UNL  0.0280
  32    H       20.9118   53.3082   17.1479 H     1 UNL  0.0280
  33    H       20.2638   56.4984   17.5894 H     1 UNL  0.0627
  34    H       20.0932   58.2940   15.8632 H     1 UNL  0.0645
  35    H       20.2644   57.9501   12.5235 H     1 UNL  0.1698
  36    H       17.4752   61.4042   13.4678 H     1 UNL  0.0632
  37    H       17.4045   63.1586   11.6777 H     1 UNL  0.0639
  38    H       18.3661   62.6390    9.4362 H     1 UNL  0.0840
  39    H       19.4470   58.7498   10.6927 H     1 UNL  0.0848
  40    H       19.2311   55.3119   12.8543 H     1 UNL  0.0667
  41    H       19.2793   52.5374   15.2643 H     1 UNL  0.1697
  42    H       20.4489   53.6216   10.1498 H     1 UNL  0.0842
  43    H       19.0801   51.6219    9.5090 H     1 UNL  0.0662
  44    H       19.3470   49.0322   10.3894 H     1 UNL  0.0631
  45    H       17.9655   47.0343    9.7631 H     1 UNL  0.0639
  46    H       15.5167   47.0619   10.2359 H     1 UNL  0.0840
  47    H       15.7824   50.9353   11.9054 H     1 UNL  0.0847
@<TRIPOS>BOND
    1     2     1  1
    2     3     2 ar
    3     4     3 ar
    4     5     4 ar
    5     6     5  1
    6     7     6 am
    7     8     7  2
    8     9     7  1
    9    10     9 ar
   10    11    10 ar
   11    12    11 ar
   12    13    12 ar
   13    14    13 ar
   14    14     9 ar
   15    15     5 ar
   16    16    15 ar
   17    16     2 ar
   18    17    16  1
   19    18    17  1
   20    19    18 ar
   21    20    19 ar
   22    21    20 ar
   23    22    21 ar
   24    23    22  1
   25    24    23 ar
   26    25    24 ar
   27    26    25 ar
   28    27    26 ar
   29    28    27 ar
   30    28    23 ar
   31    29    22 ar
   32    29    18 ar
   33     1    30  1
   34     1    31  1
   35     1    32  1
   36     3    33  1
   37     4    34  1
   38     6    35  1
   39    10    36  1
   40    11    37  1
   41    12    38  1
   42    14    39  1
   43    15    40  1
   44    17    41  1
   45    20    42  1
   46    21    43  1
   47    24    44  1
   48    25    45  1
   49    26    46  1
   50    28    47  1