@<TRIPOS>MOLECULE
UNK
70 74 0 0 0
SMALL
GASTEIGER

@<TRIPOS>ATOM
   1    C       13.9610   14.3710   45.0650 C.3   1 UNL -0.0377
   2    C       13.5620   15.6560   44.3570 C.ar  1 UNL -0.0273
   3    C       12.7870   15.5730   43.2060 C.ar  1 UNL -0.0552
   4    C       12.4070   16.7330   42.5380 C.ar  1 UNL -0.0381
   5    C       12.8100   17.9680   43.0330 C.ar  1 UNL  0.0431
   6    N       12.4340   19.1410   42.3680 N.am  1 UNL -0.3219
   7    C       12.8110   20.4630   42.7870 C.2   1 UNL  0.2552
   8    O       12.0340   21.4240   42.5380 O.2   1 UNL -0.2689
   9    C       14.1030   20.7290   43.4630 C.ar  1 UNL  0.0397
  10    C       14.1170   21.4730   44.6380 C.ar  1 UNL -0.0490
  11    C       15.3220   21.7300   45.2850 C.ar  1 UNL -0.0526
  12    C       16.5020   21.2350   44.7390 C.ar  1 UNL  0.0062
  13    C       17.8260   21.5090   45.4340 C.3   1 UNL  0.1031
  14    N       18.5020   22.7170   44.8930 N.4   1 UNL -0.3219
  15    C       18.5910   22.5900   43.4300 C.3   1 UNL  0.1273
  16    C       18.5850   23.9600   42.7670 C.3   1 UNL  0.1268
  17    N       17.2890   24.6280   42.9600 N.4   1 UNL -0.3281
  18    C       16.3280   24.2670   41.9070 C.3   1 UNL  0.0668
  19    C       16.6960   24.2830   44.2610 C.3   1 UNL  0.1268
  20    C       17.7910   23.9510   45.2640 C.3   1 UNL  0.1273
  21    C       16.4930   20.4910   43.5640 C.ar  1 UNL -0.0526
  22    C       15.2850   20.2360   42.9210 C.ar  1 UNL -0.0490
  23    C       13.5860   18.0600   44.1840 C.ar  1 UNL -0.0145
  24    C       13.9620   16.8960   44.8470 C.ar  1 UNL  0.0459
  25    N       14.7640   16.9740   46.0390 N.pl3 1 UNL -0.3238
  26    C       14.5970   17.9590   47.0210 C.ar  1 UNL  0.2272
  27    N       13.9980   19.1110   46.6860 N.ar  1 UNL -0.2213
  28    C       13.8110   20.0900   47.5840 C.ar  1 UNL  0.0330
  29    C       14.2460   19.9110   48.8930 C.ar  1 UNL -0.0171
  30    C       14.8660   18.7130   49.2300 C.ar  1 UNL  0.0773
  31    C       15.3230   18.5190   50.5950 C.ar  1 UNL  0.0187
  32    C       15.2680   17.2490   51.1600 C.ar  1 UNL -0.0497
  33    C       15.7080   17.0660   52.4660 C.ar  1 UNL -0.0431
  34    C       16.1900   18.1660   53.1690 C.ar  1 UNL  0.0268
  35    N       16.2320   19.3810   52.6020 N.ar  1 UNL -0.2640
  36    C       15.8140   19.5830   51.3440 C.ar  1 UNL  0.0362
  37    N       15.0210   17.7760   48.2810 N.ar  1 UNL -0.2127
  38    H       13.9140   14.5223   46.1535 H     1 UNL  0.0280
  39    H       13.2711   13.5642   44.7768 H     1 UNL  0.0280
  40    H       14.9866   14.0968   44.7768 H     1 UNL  0.0280
  41    H       12.4741   14.5903   42.8233 H     1 UNL  0.0627
  42    H       11.7935   16.6734   41.6269 H     1 UNL  0.0645
  43    H       11.8498   19.0509   41.5245 H     1 UNL  0.1698
  44    H       13.1753   21.8584   45.0560 H     1 UNL  0.0631
  45    H       15.3412   22.3165   46.2154 H     1 UNL  0.0628
  46    H       17.6388   21.6582   46.5076 H     1 UNL  0.0979
  47    H       18.4849   20.6456   45.2599 H     1 UNL  0.0979
  48    H       19.4459   22.7822   45.3000 H     1 UNL  0.3483
  49    H       19.5232   22.0674   43.1695 H     1 UNL  0.0985
  50    H       17.7202   22.0213   43.0719 H     1 UNL  0.0985
  51    H       19.3792   24.5787   43.2104 H     1 UNL  0.0985
  52    H       18.7577   23.8304   41.6884 H     1 UNL  0.0985
  53    H       17.4790   25.6395   42.9196 H     1 UNL  0.3477
  54    H       15.3932   23.9159   42.3684 H     1 UNL  0.0886
  55    H       16.1201   25.1483   41.2825 H     1 UNL  0.0886
  56    H       16.7518   23.4668   41.2825 H     1 UNL  0.0886
  57    H       16.1101   25.1370   44.6316 H     1 UNL  0.0985
  58    H       16.0433   23.4062   44.1377 H     1 UNL  0.0985
  59    H       18.5104   24.7825   45.2970 H     1 UNL  0.0985
  60    H       17.3246   23.7994   46.2486 H     1 UNL  0.0985
  61    H       17.4347   20.1064   43.1453 H     1 UNL  0.0628
  62    H       15.2655   19.6489   41.9910 H     1 UNL  0.0631
  63    H       13.8991   19.0429   44.5660 H     1 UNL  0.0667
  64    H       15.5006   16.2676   46.1778 H     1 UNL  0.1697
  65    H       13.3174   21.0272   47.2873 H     1 UNL  0.0842
  66    H       14.1026   20.7004   49.6455 H     1 UNL  0.0662
  67    H       14.8805   16.3987   50.5796 H     1 UNL  0.0631
  68    H       15.6758   16.0713   52.9345 H     1 UNL  0.0639
  69    H       16.5413   18.0375   54.2035 H     1 UNL  0.0840
  70    H       15.8595   20.5903   50.9044 H     1 UNL  0.0847
@<TRIPOS>BOND
    1     2     1  1
    2     3     2 ar
    3     4     3 ar
    4     5     4 ar
    5     6     5  1
    6     7     6 am
    7     8     7  2
    8     9     7  1
    9    10     9 ar
   10    11    10 ar
   11    12    11 ar
   12    13    12  1
   13    14    13  1
   14    15    14  1
   15    16    15  1
   16    17    16  1
   17    18    17  1
   18    19    17  1
   19    20    19  1
   20    20    14  1
   21    21    12 ar
   22    22     9 ar
   23    22    21 ar
   24    23     5 ar
   25    24     2 ar
   26    24    23 ar
   27    25    24  1
   28    26    25  1
   29    27    26 ar
   30    28    27 ar
   31    29    28 ar
   32    30    29 ar
   33    31    30  1
   34    32    31 ar
   35    33    32 ar
   36    34    33 ar
   37    35    34 ar
   38    36    35 ar
   39    36    31 ar
   40    37    26 ar
   41    37    30 ar
   42     1    38  1
   43     1    39  1
   44     1    40  1
   45     3    41  1
   46     4    42  1
   47     6    43  1
   48    10    44  1
   49    11    45  1
   50    13    46  1
   51    13    47  1
   52    14    48  1
   53    15    49  1
   54    15    50  1
   55    16    51  1
   56    16    52  1
   57    17    53  1
   58    18    54  1
   59    18    55  1
   60    18    56  1
   61    19    57  1
   62    19    58  1
   63    20    59  1
   64    20    60  1
   65    21    61  1
   66    22    62  1
   67    23    63  1
   68    25    64  1
   69    28    65  1
   70    29    66  1
   71    32    67  1
   72    33    68  1
   73    34    69  1
   74    36    70  1