@<TRIPOS>MOLECULE
UNK
47 49 0 0 0
SMALL
GASTEIGER

@<TRIPOS>ATOM
   1    O       21.9410   44.6910   59.0010 O.2   1 UNL -0.2689
   2    C       22.1550   44.5830   57.7640 C.2   1 UNL  0.2552
   3    N       21.0330   44.4960   56.8720 N.am  1 UNL -0.3220
   4    C       21.0460   43.8080   55.6530 C.ar  1 UNL  0.0413
   5    C       22.0180   42.8390   55.4220 C.ar  1 UNL -0.0348
   6    C       22.0390   42.1500   54.2140 C.ar  1 UNL -0.0175
   7    C       21.0810   42.4430   53.2480 C.ar  1 UNL  0.1291
   8    O       21.0920   41.7550   52.0240 O.3   1 UNL -0.4058
   9    C       20.0290   40.9460   51.5240 C.3   1 UNL  0.5726
  10    F       19.7700   39.9060   52.3980 F     1 UNL -0.1323
  11    F       20.4030   40.4190   50.3030 F     1 UNL -0.1323
  12    F       18.8890   41.7110   51.3500 F     1 UNL -0.1323
  13    C       20.1060   43.4100   53.4710 C.ar  1 UNL -0.0175
  14    C       20.0920   44.0940   54.6820 C.ar  1 UNL -0.0348
  15    C       23.5500   44.5920   57.2640 C.ar  1 UNL  0.0402
  16    C       24.5130   43.8030   57.8840 C.ar  1 UNL -0.0494
  17    C       25.8180   43.8250   57.4010 C.ar  1 UNL -0.0610
  18    C       26.1650   44.6210   56.3150 C.ar  1 UNL -0.0534
  19    C       25.1860   45.4020   55.7090 C.ar  1 UNL  0.0070
  20    C       25.5540   46.2760   54.5210 C.3   1 UNL  0.1029
  21    N       25.8750   45.4690   53.3200 N.4   1 UNL -0.3274
  22    C       25.4910   46.1570   52.0790 C.3   1 UNL  0.1012
  23    C       25.8110   45.3070   50.8560 C.3   1 UNL  0.0960
  24    O       26.5110   44.1190   51.2100 O.3   1 UNL -0.3698
  25    C       27.6590   44.3630   52.0150 C.3   1 UNL  0.0960
  26    C       27.3140   45.1710   53.2560 C.3   1 UNL  0.1012
  27    C       23.8750   45.3960   56.1760 C.ar  1 UNL -0.0406
  28    H       20.1615   44.9710   57.1472 H     1 UNL  0.1698
  29    H       22.7693   42.6182   56.1945 H     1 UNL  0.0646
  30    H       22.8038   41.3825   54.0244 H     1 UNL  0.0663
  31    H       19.3548   43.6311   52.6985 H     1 UNL  0.0663
  32    H       19.3267   44.8610   54.8718 H     1 UNL  0.0646
  33    H       24.2470   43.1706   58.7438 H     1 UNL  0.0631
  34    H       26.5859   43.2038   57.8853 H     1 UNL  0.0623
  35    H       27.1991   44.6331   55.9402 H     1 UNL  0.0628
  36    H       24.7057   46.9368   54.2892 H     1 UNL  0.0979
  37    H       26.4479   46.8580   54.7897 H     1 UNL  0.0979
  38    H       25.3353   44.5957   53.4035 H     1 UNL  0.3480
  39    H       24.4103   46.3608   52.1014 H     1 UNL  0.0949
  40    H       26.0614   47.0950   52.0101 H     1 UNL  0.0949
  41    H       24.8702   45.0314   50.3572 H     1 UNL  0.0627
  42    H       26.4535   45.8974   50.1862 H     1 UNL  0.0627
  43    H       28.0883   43.3989   52.3252 H     1 UNL  0.0627
  44    H       28.3796   44.9416   51.4184 H     1 UNL  0.0627
  45    H       27.8747   46.1171   53.2343 H     1 UNL  0.0949
  46    H       27.5841   44.5772   54.1417 H     1 UNL  0.0949
  47    H       23.1072   46.0176   55.6922 H     1 UNL  0.0636
@<TRIPOS>BOND
    1     2     1  2
    2     3     2 am
    3     4     3  1
    4     5     4 ar
    5     6     5 ar
    6     7     6 ar
    7     8     7  1
    8     9     8  1
    9    10     9  1
   10    11     9  1
   11    12     9  1
   12    13     7 ar
   13    14    13 ar
   14    14     4 ar
   15    15     2  1
   16    16    15 ar
   17    17    16 ar
   18    18    17 ar
   19    19    18 ar
   20    20    19  1
   21    21    20  1
   22    22    21  1
   23    23    22  1
   24    24    23  1
   25    25    24  1
   26    26    21  1
   27    26    25  1
   28    27    19 ar
   29    27    15 ar
   30     3    28  1
   31     5    29  1
   32     6    30  1
   33    13    31  1
   34    14    32  1
   35    16    33  1
   36    17    34  1
   37    18    35  1
   38    20    36  1
   39    20    37  1
   40    21    38  1
   41    22    39  1
   42    22    40  1
   43    23    41  1
   44    23    42  1
   45    25    43  1
   46    25    44  1
   47    26    45  1
   48    26    46  1
   49    27    47  1