@<TRIPOS>MOLECULE
UNK
50 53 0 0 0
SMALL
GASTEIGER

@<TRIPOS>ATOM
   1    O       21.6910   43.8570   53.2920 O.2   1 UNL -0.2689
   2    C       20.9280   43.8800   54.2960 C.2   1 UNL  0.2567
   3    N       19.6460   43.2250   54.2390 N.am  1 UNL -0.3219
   4    C       19.1570   42.5240   53.0830 C.ar  1 UNL  0.0413
   5    C       20.0590   41.9440   52.1970 C.ar  1 UNL -0.0348
   6    C       19.5950   41.2640   51.0760 C.ar  1 UNL -0.0175
   7    C       18.2240   41.1750   50.8560 C.ar  1 UNL  0.1291
   8    O       17.7610   40.5190   49.7710 O.3   1 UNL -0.4058
   9    C       17.2870   39.1740   49.7630 C.3   1 UNL  0.5726
  10    F       16.2120   39.0720   50.6250 F     1 UNL -0.1323
  11    F       16.8720   38.8230   48.4900 F     1 UNL -0.1323
  12    F       18.2830   38.3140   50.1880 F     1 UNL -0.1323
  13    C       17.3140   41.7520   51.7360 C.ar  1 UNL -0.0175
  14    C       17.7870   42.4300   52.8550 C.ar  1 UNL -0.0348
  15    C       21.3640   44.5790   55.4910 C.ar  1 UNL  0.0588
  16    C       20.5120   44.7770   56.5730 C.ar  1 UNL  0.0421
  17    N       20.9310   45.4250   57.6700 N.ar  1 UNL -0.2378
  18    C       22.1800   45.9050   57.7670 C.ar  1 UNL  0.1362
  19    N       22.5830   46.5760   58.9280 N.2   1 UNL -0.3534
  20    C       23.4580   46.0220   59.9670 C.3   1 UNL  0.0218
  21    C       24.2750   47.2320   60.3690 C.3   1 UNL -0.0075
  22    C       23.3050   48.4010   60.2700 C.3   1 UNL  0.0732
  23    O       22.7150   48.6810   61.5310 O.3   1 UNL -0.3912
  24    C       22.2210   47.9370   59.3140 C.3   1 UNL  0.0453
  25    C       23.0740   45.7350   56.7150 C.ar  1 UNL  0.0282
  26    C       24.4320   46.2400   56.7830 C.ar  1 UNL  0.0221
  27    C       25.5190   45.3760   56.7090 C.ar  1 UNL  0.0382
  28    N       26.7670   45.8630   56.7710 N.ar  1 UNL -0.2442
  29    C       26.9930   47.1790   56.9060 C.ar  1 UNL  0.1148
  30    N       25.9610   48.0320   56.9790 N.ar  1 UNL -0.2442
  31    C       24.6950   47.5980   56.9210 C.ar  1 UNL  0.0382
  32    C       22.6640   45.0660   55.5660 C.ar  1 UNL -0.0362
  33    H       19.0451   43.2611   55.0748 H     1 UNL  0.1698
  34    H       21.1402   42.0232   52.3832 H     1 UNL  0.0646
  35    H       20.3031   40.8023   50.3721 H     1 UNL  0.0663
  36    H       16.2329   41.6731   51.5492 H     1 UNL  0.0663
  37    H       17.0789   42.8914   53.5590 H     1 UNL  0.0646
  38    H       19.4807   44.3969   56.5281 H     1 UNL  0.0849
  39    H       22.8750   45.6337   60.8152 H     1 UNL  0.0494
  40    H       24.0652   45.1699   59.6274 H     1 UNL  0.0494
  41    H       24.6488   47.1237   61.3979 H     1 UNL  0.0312
  42    H       25.1596   47.3689   59.7297 H     1 UNL  0.0312
  43    H       23.8179   49.3140   59.9333 H     1 UNL  0.0620
  44    H       23.3267   48.3907   62.2533 H     1 UNL  0.2105
  45    H       22.1866   48.5893   58.4290 H     1 UNL  0.0521
  46    H       21.2267   47.9726   59.7831 H     1 UNL  0.0521
  47    H       25.3554   44.2937   56.5997 H     1 UNL  0.0848
  48    H       28.0245   47.5577   56.9567 H     1 UNL  0.1062
  49    H       23.8639   48.3159   56.9825 H     1 UNL  0.0848
  50    H       23.3605   44.9240   54.7265 H     1 UNL  0.0640
@<TRIPOS>BOND
    1     2     1  2
    2     3     2 am
    3     4     3  1
    4     5     4 ar
    5     6     5 ar
    6     7     6 ar
    7     8     7  1
    8     9     8  1
    9    10     9  1
   10    11     9  1
   11    12     9  1
   12    13     7 ar
   13    14    13 ar
   14    14     4 ar
   15    15     2  1
   16    16    15 ar
   17    17    16 ar
   18    18    17 ar
   19    19    18  1
   20    20    19  1
   21    21    20  1
   22    22    21  1
   23    23    22  1
   24    24    19  1
   25    24    22  1
   26    25    18 ar
   27    26    25  1
   28    27    26 ar
   29    28    27 ar
   30    29    28 ar
   31    30    29 ar
   32    31    30 ar
   33    31    26 ar
   34    32    15 ar
   35    32    25 ar
   36     3    33  1
   37     5    34  1
   38     6    35  1
   39    13    36  1
   40    14    37  1
   41    16    38  1
   42    20    39  1
   43    20    40  1
   44    21    41  1
   45    21    42  1
   46    22    43  1
   47    23    44  1
   48    24    45  1
   49    24    46  1
   50    27    47  1
   51    29    48  1
   52    31    49  1
   53    32    50  1