@<TRIPOS>MOLECULE
UNK
49 52 0 0 0
SMALL
GASTEIGER

@<TRIPOS>ATOM
   1    C       -4.0810    8.2480   20.1300 C.3   1 UNL  0.0775
   2    O       -4.0390    7.0840   20.9500 O.3   1 UNL -0.4961
   3    C       -4.8160    5.9940   20.7760 C.ar  1 UNL  0.1263
   4    C       -5.6960    5.9680   19.7000 C.ar  1 UNL -0.0193
   5    C       -6.5110    4.8590   19.4930 C.ar  1 UNL -0.0585
   6    C       -6.4440    3.7750   20.3630 C.ar  1 UNL -0.0614
   7    C       -5.5630    3.8000   21.4390 C.ar  1 UNL -0.0505
   8    C       -4.7490    4.9100   21.6460 C.ar  1 UNL  0.0283
   9    C       -3.8300    4.9360   22.7690 C.ar  1 UNL  0.0400
  10    C       -2.6710    5.6510   22.8160 C.ar  1 UNL  0.0969
  11    N       -2.1020    5.4080   24.0310 N.ar  1 UNL -0.2463
  12    C       -2.8950    4.5430   24.7470 C.ar  1 UNL  0.2845
  13    N       -2.8100    3.9870   25.9670 N.ar  1 UNL -0.2463
  14    C       -3.7520    3.1560   26.4410 C.ar  1 UNL  0.0959
  15    C       -4.8750    2.8220   25.6890 C.ar  1 UNL  0.0232
  16    C       -5.9150    1.9300   26.1640 C.ar  1 UNL  0.0044
  17    C       -6.7940    1.3070   25.2840 C.ar  1 UNL  0.0348
  18    N       -7.7510    0.4850   25.7420 N.ar  1 UNL -0.2633
  19    C       -7.8910    0.2380   27.0530 C.ar  1 UNL  0.0396
  20    C       -7.0400    0.8350   27.9770 C.ar  1 UNL  0.0584
  21    C       -7.1780    0.5760   29.4270 C.2   1 UNL  0.2544
  22    O       -6.9210    1.5050   30.2420 O.2   1 UNL -0.2690
  23    N       -7.5910   -0.7110   29.9260 N.am  1 UNL -0.3447
  24    C       -6.6880   -1.8550   29.7970 C.3   1 UNL  0.0091
  25    C       -9.0020   -0.9480   30.2500 C.3   1 UNL  0.0091
  26    C       -6.0400    1.6910   27.5290 C.ar  1 UNL -0.0383
  27    C       -4.9940    3.3770   24.4220 C.ar  1 UNL -0.0344
  28    C       -3.9900    4.2310   23.9850 C.ar  1 UNL  0.0762
  29    H       -4.1133    9.1442   20.7669 H     1 UNL  0.0669
  30    H       -3.1835    8.2817   19.4949 H     1 UNL  0.0669
  31    H       -4.9786    8.2169   19.4949 H     1 UNL  0.0669
  32    H       -5.7481    6.8245   19.0118 H     1 UNL  0.0662
  33    H       -7.2078    4.8394   18.6421 H     1 UNL  0.0624
  34    H       -7.0879    2.8982   20.1997 H     1 UNL  0.0623
  35    H       -5.5095    2.9428   22.1262 H     1 UNL  0.0631
  36    H       -2.2705    6.3009   22.0240 H     1 UNL  0.1101
  37    H       -1.2137    5.8110   24.3618 H     1 UNL  0.3115
  38    H       -1.9953    4.2054   26.5582 H     1 UNL  0.3115
  39    H       -3.6336    2.7288   27.4477 H     1 UNL  0.1101
  40    H       -6.7039    1.4897   24.2030 H     1 UNL  0.0847
  41    H       -8.6840   -0.4411   27.3995 H     1 UNL  0.0848
  42    H       -6.4051   -2.2135   30.7977 H     1 UNL  0.0457
  43    H       -7.1950   -2.6623   29.2481 H     1 UNL  0.0457
  44    H       -5.7850   -1.5493   29.2481 H     1 UNL  0.0457
  45    H       -9.1288   -0.9693   31.3425 H     1 UNL  0.0457
  46    H       -9.6164   -0.1405   29.8252 H     1 UNL  0.0457
  47    H       -9.3188   -1.9119   29.8252 H     1 UNL  0.0457
  48    H       -5.3569    2.1727   28.2441 H     1 UNL  0.0639
  49    H       -5.8589    3.1468   23.7825 H     1 UNL  0.0640
@<TRIPOS>BOND
    1     2     1  1
    2     3     2  1
    3     4     3 ar
    4     5     4 ar
    5     6     5 ar
    6     7     6 ar
    7     8     7 ar
    8     8     3 ar
    9     9     8  1
   10    10     9 ar
   11    11    10 ar
   12    12    11 ar
   13    13    12 ar
   14    14    13 ar
   15    15    14 ar
   16    16    15  1
   17    17    16 ar
   18    18    17 ar
   19    19    18 ar
   20    20    19 ar
   21    21    20  1
   22    22    21  2
   23    23    21 am
   24    24    23  1
   25    25    23  1
   26    26    16 ar
   27    26    20 ar
   28    27    15 ar
   29    28    27 ar
   30    28    12 ar
   31    28     9 ar
   32     1    29  1
   33     1    30  1
   34     1    31  1
   35     4    32  1
   36     5    33  1
   37     6    34  1
   38     7    35  1
   39    10    36  1
   40    11    37  1
   41    13    38  1
   42    14    39  1
   43    17    40  1
   44    19    41  1
   45    24    42  1
   46    24    43  1
   47    24    44  1
   48    25    45  1
   49    25    46  1
   50    25    47  1
   51    26    48  1
   52    27    49  1